data_image0
_cell_length_a       18.906
_cell_length_b       18.906
_cell_length_c       13.6216
_cell_angle_alpha    90
_cell_angle_beta     90
_cell_angle_gamma    90

_symmetry_space_group_name_H-M    "P 1"
_symmetry_int_tables_number       1

loop_
  _symmetry_equiv_pos_as_xyz
  'x, y, z'

loop_
  _atom_site_label
  _atom_site_occupancy
  _atom_site_fract_x
  _atom_site_fract_y
  _atom_site_fract_z
  _atom_site_thermal_displace_type
  _atom_site_B_iso_or_equiv
  _atom_site_type_symbol
  Cu1      1.0000 0.96842  0.53158  0.43255  Biso   1.000  Cu
  Cu2      1.0000 0.03158  0.46842  0.56745  Biso   1.000  Cu
  Cu3      1.0000 0.53158  0.96842  0.43255  Biso   1.000  Cu
  Cu4      1.0000 0.46842  0.03158  0.56745  Biso   1.000  Cu
  Cu5      1.0000 0.96842  0.96842  0.43255  Biso   1.000  Cu
  Cu6      1.0000 0.03158  0.03158  0.56745  Biso   1.000  Cu
  Cu7      1.0000 0.53158  0.53158  0.43255  Biso   1.000  Cu
  Cu8      1.0000 0.46842  0.46842  0.56745  Biso   1.000  Cu
  O1       1.0000 0.95940  0.43786  0.37800  Biso   1.000  O
  O2       1.0000 0.04060  0.56214  0.62200  Biso   1.000  O
  O3       1.0000 0.54060  0.06214  0.37800  Biso   1.000  O
  O4       1.0000 0.45940  0.93786  0.62200  Biso   1.000  O
  O5       1.0000 0.06214  0.95940  0.37800  Biso   1.000  O
  O6       1.0000 0.93786  0.04060  0.62200  Biso   1.000  O
  O7       1.0000 0.43786  0.54060  0.37800  Biso   1.000  O
  O8       1.0000 0.56214  0.45940  0.62200  Biso   1.000  O
  O9       1.0000 0.04060  0.93786  0.62200  Biso   1.000  O
  O10      1.0000 0.95940  0.06214  0.37800  Biso   1.000  O
  O11      1.0000 0.45940  0.56214  0.62200  Biso   1.000  O
  O12      1.0000 0.54060  0.43786  0.37800  Biso   1.000  O
  O13      1.0000 0.93786  0.45940  0.62200  Biso   1.000  O
  O14      1.0000 0.06214  0.54060  0.37800  Biso   1.000  O
  O15      1.0000 0.56214  0.04060  0.62200  Biso   1.000  O
  O16      1.0000 0.43786  0.95940  0.37800  Biso   1.000  O
  O17      1.0000 0.01724  0.38056  0.49760  Biso   1.000  O
  O18      1.0000 0.98276  0.61944  0.50240  Biso   1.000  O
  O19      1.0000 0.48276  0.11944  0.49760  Biso   1.000  O
  O20      1.0000 0.51724  0.88056  0.50240  Biso   1.000  O
  O21      1.0000 0.11944  0.01724  0.49760  Biso   1.000  O
  O22      1.0000 0.88056  0.98276  0.50240  Biso   1.000  O
  O23      1.0000 0.38056  0.48276  0.49760  Biso   1.000  O
  O24      1.0000 0.61944  0.51724  0.50240  Biso   1.000  O
  O25      1.0000 0.98276  0.88056  0.50240  Biso   1.000  O
  O26      1.0000 0.01724  0.11944  0.49760  Biso   1.000  O
  O27      1.0000 0.51724  0.61944  0.50240  Biso   1.000  O
  O28      1.0000 0.48276  0.38056  0.49760  Biso   1.000  O
  O29      1.0000 0.88056  0.51724  0.50240  Biso   1.000  O
  O30      1.0000 0.11944  0.48276  0.49760  Biso   1.000  O
  O31      1.0000 0.61944  0.98276  0.50240  Biso   1.000  O
  O32      1.0000 0.38056  0.01724  0.49760  Biso   1.000  O
  C1       1.0000 0.81330  0.25000  0.20910  Biso   1.000  C
  C2       1.0000 0.18670  0.75000  0.79090  Biso   1.000  C
  C3       1.0000 0.68670  0.25000  0.20910  Biso   1.000  C
  C4       1.0000 0.31330  0.75000  0.79090  Biso   1.000  C
  C5       1.0000 0.25000  0.81330  0.20910  Biso   1.000  C
  C6       1.0000 0.75000  0.18670  0.79090  Biso   1.000  C
  C7       1.0000 0.25000  0.68670  0.20910  Biso   1.000  C
  C8       1.0000 0.75000  0.31330  0.79090  Biso   1.000  C
  C9       1.0000 0.75000  0.25000  0.05530  Biso   1.000  C
  C10      1.0000 0.25000  0.75000  0.94470  Biso   1.000  C
  C11      1.0000 0.25000  0.75000  0.05530  Biso   1.000  C
  C12      1.0000 0.75000  0.25000  0.94470  Biso   1.000  C
  C13      1.0000 0.75000  0.25000  0.26010  Biso   1.000  C
  C14      1.0000 0.25000  0.75000  0.73990  Biso   1.000  C
  C15      1.0000 0.25000  0.75000  0.26010  Biso   1.000  C
  C16      1.0000 0.75000  0.25000  0.73990  Biso   1.000  C
  C17      1.0000 0.98070  0.38340  0.41920  Biso   1.000  C
  C18      1.0000 0.01930  0.61660  0.58080  Biso   1.000  C
  C19      1.0000 0.51930  0.11660  0.41920  Biso   1.000  C
  C20      1.0000 0.48070  0.88340  0.58080  Biso   1.000  C
  C21      1.0000 0.11660  0.98070  0.41920  Biso   1.000  C
  C22      1.0000 0.88340  0.01930  0.58080  Biso   1.000  C
  C23      1.0000 0.38340  0.51930  0.41920  Biso   1.000  C
  C24      1.0000 0.61660  0.48070  0.58080  Biso   1.000  C
  C25      1.0000 0.01930  0.88340  0.58080  Biso   1.000  C
  C26      1.0000 0.98070  0.11660  0.41920  Biso   1.000  C
  C27      1.0000 0.48070  0.61660  0.58080  Biso   1.000  C
  C28      1.0000 0.51930  0.38340  0.41920  Biso   1.000  C
  C29      1.0000 0.88340  0.48070  0.58080  Biso   1.000  C
  C30      1.0000 0.11660  0.51930  0.41920  Biso   1.000  C
  C31      1.0000 0.61660  0.01930  0.58080  Biso   1.000  C
  C32      1.0000 0.38340  0.98070  0.41920  Biso   1.000  C
  C33      1.0000 0.81430  0.25000  0.10470  Biso   1.000  C
  C34      1.0000 0.18570  0.75000  0.89530  Biso   1.000  C
  C35      1.0000 0.68570  0.25000  0.10470  Biso   1.000  C
  C36      1.0000 0.31430  0.75000  0.89530  Biso   1.000  C
  C37      1.0000 0.25000  0.81430  0.10470  Biso   1.000  C
  C38      1.0000 0.75000  0.18570  0.89530  Biso   1.000  C
  C39      1.0000 0.25000  0.68570  0.10470  Biso   1.000  C
  C40      1.0000 0.75000  0.31430  0.89530  Biso   1.000  C
  C41      1.0000 0.87990  0.25000  0.26880  Biso   1.000  C
  C42      1.0000 0.12010  0.75000  0.73120  Biso   1.000  C
  C43      1.0000 0.62010  0.25000  0.26880  Biso   1.000  C
  C44      1.0000 0.37990  0.75000  0.73120  Biso   1.000  C
  C45      1.0000 0.25000  0.87990  0.26880  Biso   1.000  C
  C46      1.0000 0.75000  0.12010  0.73120  Biso   1.000  C
  C47      1.0000 0.25000  0.62010  0.26880  Biso   1.000  C
  C48      1.0000 0.75000  0.37990  0.73120  Biso   1.000  C
  C49      1.0000 0.95980  0.31350  0.37520  Biso   1.000  C
  C50      1.0000 0.04020  0.68650  0.62480  Biso   1.000  C
  C51      1.0000 0.54020  0.18650  0.37520  Biso   1.000  C
  C52      1.0000 0.45980  0.81350  0.62480  Biso   1.000  C
  C53      1.0000 0.18650  0.95980  0.37520  Biso   1.000  C
  C54      1.0000 0.81350  0.04020  0.62480  Biso   1.000  C
  C55      1.0000 0.31350  0.54020  0.37520  Biso   1.000  C
  C56      1.0000 0.68650  0.45980  0.62480  Biso   1.000  C
  C57      1.0000 0.04020  0.81350  0.62480  Biso   1.000  C
  C58      1.0000 0.95980  0.18650  0.37520  Biso   1.000  C
  C59      1.0000 0.45980  0.68650  0.62480  Biso   1.000  C
  C60      1.0000 0.54020  0.31350  0.37520  Biso   1.000  C
  C61      1.0000 0.81350  0.45980  0.62480  Biso   1.000  C
  C62      1.0000 0.18650  0.54020  0.37520  Biso   1.000  C
  C63      1.0000 0.68650  0.04020  0.62480  Biso   1.000  C
  C64      1.0000 0.31350  0.95980  0.37520  Biso   1.000  C
  C65      1.0000 0.90730  0.31260  0.30290  Biso   1.000  C
  C66      1.0000 0.09270  0.68740  0.69710  Biso   1.000  C
  C67      1.0000 0.59270  0.18740  0.30290  Biso   1.000  C
  C68      1.0000 0.40730  0.81260  0.69710  Biso   1.000  C
  C69      1.0000 0.18740  0.90730  0.30290  Biso   1.000  C
  C70      1.0000 0.81260  0.09270  0.69710  Biso   1.000  C
  C71      1.0000 0.31260  0.59270  0.30290  Biso   1.000  C
  C72      1.0000 0.68740  0.40730  0.69710  Biso   1.000  C
  C73      1.0000 0.09270  0.81260  0.69710  Biso   1.000  C
  C74      1.0000 0.90730  0.18740  0.30290  Biso   1.000  C
  C75      1.0000 0.40730  0.68740  0.69710  Biso   1.000  C
  C76      1.0000 0.59270  0.31260  0.30290  Biso   1.000  C
  C77      1.0000 0.81260  0.40730  0.69710  Biso   1.000  C
  C78      1.0000 0.18740  0.59270  0.30290  Biso   1.000  C
  C79      1.0000 0.68740  0.09270  0.69710  Biso   1.000  C
  C80      1.0000 0.31260  0.90730  0.30290  Biso   1.000  C
  H1       1.0000 0.89060  0.35510  0.27750  Biso   1.000  H
  H2       1.0000 0.10940  0.64490  0.72250  Biso   1.000  H
  H3       1.0000 0.60940  0.14490  0.27750  Biso   1.000  H
  H4       1.0000 0.39060  0.85510  0.72250  Biso   1.000  H
  H5       1.0000 0.14490  0.89060  0.27750  Biso   1.000  H
  H6       1.0000 0.85510  0.10940  0.72250  Biso   1.000  H
  H7       1.0000 0.35510  0.60940  0.27750  Biso   1.000  H
  H8       1.0000 0.64490  0.39060  0.72250  Biso   1.000  H
  H9       1.0000 0.10940  0.85510  0.72250  Biso   1.000  H
  H10      1.0000 0.89060  0.14490  0.27750  Biso   1.000  H
  H11      1.0000 0.39060  0.64490  0.72250  Biso   1.000  H
  H12      1.0000 0.60940  0.35510  0.27750  Biso   1.000  H
  H13      1.0000 0.85510  0.39060  0.72250  Biso   1.000  H
  H14      1.0000 0.14490  0.60940  0.27750  Biso   1.000  H
  H15      1.0000 0.64490  0.10940  0.72250  Biso   1.000  H
  H16      1.0000 0.35510  0.89060  0.27750  Biso   1.000  H
  C81      1.0000 0.98500  0.25000  0.41200  Biso   1.000  C
  C82      1.0000 0.01500  0.75000  0.58800  Biso   1.000  C
  C83      1.0000 0.51500  0.25000  0.41200  Biso   1.000  C
  C84      1.0000 0.48500  0.75000  0.58800  Biso   1.000  C
  C85      1.0000 0.25000  0.98500  0.41200  Biso   1.000  C
  C86      1.0000 0.75000  0.01500  0.58800  Biso   1.000  C
  C87      1.0000 0.25000  0.51500  0.41200  Biso   1.000  C
  C88      1.0000 0.75000  0.48500  0.58800  Biso   1.000  C
  H17      1.0000 0.01890  0.25000  0.46150  Biso   1.000  H
  H18      1.0000 0.98110  0.75000  0.53850  Biso   1.000  H
  H19      1.0000 0.48110  0.25000  0.46150  Biso   1.000  H
  H20      1.0000 0.51890  0.75000  0.53850  Biso   1.000  H
  H21      1.0000 0.25000  0.01890  0.46150  Biso   1.000  H
  H22      1.0000 0.75000  0.98110  0.53850  Biso   1.000  H
  H23      1.0000 0.25000  0.48110  0.46150  Biso   1.000  H
  H24      1.0000 0.75000  0.51890  0.53850  Biso   1.000  H
  C89      1.0000 0.88350  0.25000  0.05060  Biso   1.000  C
  C90      1.0000 0.11650  0.75000  0.94940  Biso   1.000  C
  C91      1.0000 0.61650  0.25000  0.05060  Biso   1.000  C
  C92      1.0000 0.38350  0.75000  0.94940  Biso   1.000  C
  C93      1.0000 0.25000  0.88350  0.05060  Biso   1.000  C
  C94      1.0000 0.75000  0.11650  0.94940  Biso   1.000  C
  C95      1.0000 0.25000  0.61650  0.05060  Biso   1.000  C
  C96      1.0000 0.75000  0.38350  0.94940  Biso   1.000  C
  H25      1.0000 0.90000  0.20230  0.04360  Biso   1.000  H
  H26      1.0000 0.10000  0.79770  0.95640  Biso   1.000  H
  H27      1.0000 0.60000  0.29770  0.04360  Biso   1.000  H
  H28      1.0000 0.40000  0.70230  0.95640  Biso   1.000  H
  H29      1.0000 0.29770  0.90000  0.04360  Biso   1.000  H
  H30      1.0000 0.70230  0.10000  0.95640  Biso   1.000  H
  H31      1.0000 0.20230  0.60000  0.04360  Biso   1.000  H
  H32      1.0000 0.79770  0.40000  0.95640  Biso   1.000  H
  H33      1.0000 0.10000  0.70230  0.95640  Biso   1.000  H
  H34      1.0000 0.90000  0.29770  0.04360  Biso   1.000  H
  H35      1.0000 0.40000  0.79770  0.95640  Biso   1.000  H
  H36      1.0000 0.60000  0.20230  0.04360  Biso   1.000  H
  H37      1.0000 0.70230  0.40000  0.95640  Biso   1.000  H
  H38      1.0000 0.29770  0.60000  0.04360  Biso   1.000  H
  H39      1.0000 0.79770  0.10000  0.95640  Biso   1.000  H
  H40      1.0000 0.20230  0.90000  0.04360  Biso   1.000  H
  H41      1.0000 0.91760  0.27710  0.08690  Biso   1.000  H
  H42      1.0000 0.08240  0.72290  0.91310  Biso   1.000  H
  H43      1.0000 0.58240  0.22290  0.08690  Biso   1.000  H
  H44      1.0000 0.41760  0.77710  0.91310  Biso   1.000  H
  H45      1.0000 0.22290  0.91760  0.08690  Biso   1.000  H
  H46      1.0000 0.77710  0.08240  0.91310  Biso   1.000  H
  H47      1.0000 0.27710  0.58240  0.08690  Biso   1.000  H
  H48      1.0000 0.72290  0.41760  0.91310  Biso   1.000  H
  H49      1.0000 0.08240  0.77710  0.91310  Biso   1.000  H
  H50      1.0000 0.91760  0.22290  0.08690  Biso   1.000  H
  H51      1.0000 0.41760  0.72290  0.91310  Biso   1.000  H
  H52      1.0000 0.58240  0.27710  0.08690  Biso   1.000  H
  H53      1.0000 0.77710  0.41760  0.91310  Biso   1.000  H
  H54      1.0000 0.22290  0.58240  0.08690  Biso   1.000  H
  H55      1.0000 0.72290  0.08240  0.91310  Biso   1.000  H
  H56      1.0000 0.27710  0.91760  0.08690  Biso   1.000  H
  H57      1.0000 0.87710  0.27070  0.98690  Biso   1.000  H
  H58      1.0000 0.12290  0.72930  0.01310  Biso   1.000  H
  H59      1.0000 0.62290  0.22930  0.98690  Biso   1.000  H
  H60      1.0000 0.37710  0.77070  0.01310  Biso   1.000  H
  H61      1.0000 0.22930  0.87710  0.98690  Biso   1.000  H
  H62      1.0000 0.77070  0.12290  0.01310  Biso   1.000  H
  H63      1.0000 0.27070  0.62290  0.98690  Biso   1.000  H
  H64      1.0000 0.72930  0.37710  0.01310  Biso   1.000  H
  H65      1.0000 0.12290  0.77070  0.01310  Biso   1.000  H
  H66      1.0000 0.87710  0.22930  0.98690  Biso   1.000  H
  H67      1.0000 0.37710  0.72930  0.01310  Biso   1.000  H
  H68      1.0000 0.62290  0.27070  0.98690  Biso   1.000  H
  H69      1.0000 0.77070  0.37710  0.01310  Biso   1.000  H
  H70      1.0000 0.22930  0.62290  0.98690  Biso   1.000  H
  H71      1.0000 0.72930  0.12290  0.01310  Biso   1.000  H
  H72      1.0000 0.27070  0.87710  0.98690  Biso   1.000  H
  C97      1.0000 0.75000  0.25000  0.37140  Biso   1.000  C
  C98      1.0000 0.25000  0.75000  0.62860  Biso   1.000  C
  C99      1.0000 0.25000  0.75000  0.37140  Biso   1.000  C
  C100     1.0000 0.75000  0.25000  0.62860  Biso   1.000  C
  H73      1.0000 0.77390  0.20850  0.39490  Biso   1.000  H
  H74      1.0000 0.22610  0.79150  0.60510  Biso   1.000  H
  H75      1.0000 0.72610  0.29150  0.39490  Biso   1.000  H
  H76      1.0000 0.27390  0.70850  0.60510  Biso   1.000  H
  H77      1.0000 0.29150  0.77390  0.39490  Biso   1.000  H
  H78      1.0000 0.70850  0.22610  0.60510  Biso   1.000  H
  H79      1.0000 0.20850  0.72610  0.39490  Biso   1.000  H
  H80      1.0000 0.79150  0.27390  0.60510  Biso   1.000  H
  H81      1.0000 0.22610  0.70850  0.60510  Biso   1.000  H
  H82      1.0000 0.77390  0.29150  0.39490  Biso   1.000  H
  H83      1.0000 0.27390  0.79150  0.60510  Biso   1.000  H
  H84      1.0000 0.72610  0.20850  0.39490  Biso   1.000  H
  H85      1.0000 0.70850  0.27390  0.60510  Biso   1.000  H
  H86      1.0000 0.29150  0.72610  0.39490  Biso   1.000  H
  H87      1.0000 0.79150  0.22610  0.60510  Biso   1.000  H
  H88      1.0000 0.20850  0.77390  0.39490  Biso   1.000  H
  H89      1.0000 0.70210  0.25000  0.39490  Biso   1.000  H
  H90      1.0000 0.29790  0.75000  0.60510  Biso   1.000  H
  H91      1.0000 0.79790  0.25000  0.39490  Biso   1.000  H
  H92      1.0000 0.20210  0.75000  0.60510  Biso   1.000  H
  H93      1.0000 0.25000  0.70210  0.39490  Biso   1.000  H
  H94      1.0000 0.75000  0.29790  0.60510  Biso   1.000  H
  H95      1.0000 0.25000  0.79790  0.39490  Biso   1.000  H
  H96      1.0000 0.75000  0.20210  0.60510  Biso   1.000  H
