
##########################################################################
#               Crystallographic Information Format file
#               Produced by PyCifRW module
#
#  This is a CIF file.  CIF has been adopted by the International
#  Union of Crystallography as the standard for data archiving and
#  transmission.
#
#  For information on this file format, follow the CIF links at
#  http://www.iucr.org
##########################################################################

data_image0

_cell_length_a                          21.6311
_cell_length_b                          21.6365
_cell_length_c                          10.452
_cell_angle_alpha                       90
_cell_angle_beta                        90
_cell_angle_gamma                       90
_symmetry_space_group_name_H-M          'P 1'
_space_group_name_Hall                  'P 1'
loop_
  _atom_site_type_symbol
  _atom_site_label
  _atom_site_fract_x
  _atom_site_fract_y
  _atom_site_fract_z
  _atom_site_charge
         Al        Al        0.31742   0.74955   0.62803   1.768739  
         Al        Al        0.81712   0.24960   0.12771   1.769069  
         Al        Al        0.18262   0.75040   0.12796   1.766926  
         Al        Al        0.68272   0.25035   0.62779   1.768898  
         Al        Al        0.25043   0.81724   0.87806   1.767028  
         Al        Al        0.75038   0.31740   0.37790   1.767600  
         Al        Al        0.24962   0.68265   0.37796   1.766994  
         Al        Al        0.74964   0.18254   0.87778   1.767076  
         Al        Al        0.68281   0.74950   0.62827   1.769286  
         Al        Al        0.18280   0.24952   0.12760   1.768524  
         Al        Al        0.81731   0.75044   0.12790   1.768627  
         Al        Al        0.31728   0.25047   0.62769   1.768198  
         Al        Al        0.75044   0.68274   0.37809   1.768320  
         Al        Al        0.25047   0.18261   0.87747   1.769001  
         Al        Al        0.74966   0.81739   0.87803   1.769439  
         Al        Al        0.24959   0.31731   0.37754   1.769900  
         O         O         0.38177   0.75653   0.75122   -0.582806           
         O         O         0.33773   0.81902   0.90002   -0.595032           
         O         O         0.88172   0.25659   0.25053   -0.582900           
         O         O         0.83777   0.31933   0.39903   -0.596086           
         O         O         0.11820   0.74347   0.25081   -0.583059           
         O         O         0.16225   0.68085   0.39947   -0.595312           
         O         O         0.61827   0.24328   0.75038   -0.583732           
         O         O         0.66221   0.18066   0.89916   -0.595430           
         O         O         0.24341   0.88181   0.00080   -0.582942           
         O         O         0.18078   0.83779   0.14944   -0.594782           
         O         O         0.74330   0.38181   0.50091   -0.583636           
         O         O         0.68067   0.33776   0.64952   -0.594766           
         O         O         0.25661   0.61816   0.50089   -0.582883           
         O         O         0.31916   0.66220   0.64965   -0.595439           
         O         O         0.75663   0.11810   0.00092   -0.583090           
         O         O         0.81901   0.16224   0.14978   -0.594528           
         O         O         0.11807   0.75646   0.00122   -0.586070           
         O         O         0.16256   0.81774   0.85005   -0.614532           
         O         O         0.61803   0.25628   0.50157   -0.586919           
         O         O         0.66255   0.31707   0.34984   -0.616247           
         O         O         0.38190   0.74338   0.50122   -0.586291           
         O         O         0.33758   0.68187   0.35018   -0.614347           
         O         O         0.88192   0.24346   0.00175   -0.587570           
         O         O         0.83752   0.18283   0.84961   -0.616598           
         O         O         0.25665   0.88176   0.75091   -0.586960           
         O         O         0.31857   0.83752   0.60039   -0.615318           
         O         O         0.75619   0.38208   0.25147   -0.587949           
         O         O         0.81665   0.33736   0.09953   -0.616380           
         O         O         0.24349   0.61814   0.25094   -0.585442           
         O         O         0.18184   0.66248   0.10014   -0.614890           
         O         O         0.74392   0.11791   0.75145   -0.587115           
         O         O         0.68338   0.16258   0.59967   -0.616549           
         O         O         0.61824   0.74345   0.50129   -0.586401           
         O         O         0.66253   0.68199   0.35004   -0.613995           
         O         O         0.11839   0.24357   0.00059   -0.586817           
         O         O         0.16257   0.18167   0.85002   -0.614606           
         O         O         0.88181   0.75645   0.00096   -0.585872           
         O         O         0.83758   0.81819   0.85020   -0.614871           
         O         O         0.38179   0.25653   0.50119   -0.586670           
         O         O         0.33746   0.31779   0.34987   -0.615527           
         O         O         0.75659   0.61816   0.25138   -0.586162           
         O         O         0.81762   0.66260   0.09978   -0.615558           
         O         O         0.25634   0.11809   0.75074   -0.586220           
         O         O         0.31780   0.16253   0.59988   -0.615398           
         O         O         0.74352   0.88200   0.75174   -0.587200           
         O         O         0.68291   0.83726   0.59995   -0.615839           
         O         O         0.24371   0.38187   0.25087   -0.587245           
         O         O         0.18239   0.33740   0.09983   -0.615624           
         O         O         0.88173   0.74322   0.25079   -0.584090           
         O         O         0.83774   0.68107   0.40019   -0.594150           
         O         O         0.38194   0.24358   0.75000   -0.583056           
         O         O         0.33791   0.18047   0.89759   -0.597074           
         O         O         0.61820   0.75654   0.75093   -0.583090           
         O         O         0.66225   0.81923   0.89941   -0.595431           
         O         O         0.11812   0.25643   0.24993   -0.583111           
         O         O         0.16215   0.31949   0.39768   -0.597007           
         O         O         0.74327   0.61832   0.50091   -0.583084           
         O         O         0.68107   0.66231   0.65023   -0.595391           
         O         O         0.24344   0.11826   0.00056   -0.583698           
         O         O         0.18101   0.16221   0.14972   -0.594905           
         O         O         0.75664   0.88183   0.00101   -0.583125           
         O         O         0.81927   0.83778   0.14960   -0.595442           
         O         O         0.25655   0.38177   0.50074   -0.583496           
         O         O         0.31912   0.33778   0.64954   -0.595211           
         O         O         0.25639   0.75350   0.75646   -1.004256           
         O         O         0.75632   0.25356   0.25620   -1.002991           
         O         O         0.24367   0.74650   0.25647   -1.003510           
         O         O         0.74362   0.24651   0.75629   -1.002759           
         O         O         0.24646   0.75628   0.00658   -1.003229           
         O         O         0.74652   0.25648   0.50623   -1.004169           
         O         O         0.25359   0.74362   0.50652   -1.003650           
         O         O         0.75338   0.24361   0.00590   -1.003041           
         O         O         0.74645   0.74350   0.50661   -1.005145           
         O         O         0.24662   0.24348   0.00624   -1.005106           
         O         O         0.75353   0.75647   0.00649   -1.005112           
         O         O         0.25343   0.25646   0.50629   -1.004412           
         O         O         0.75645   0.74649   0.25654   -1.005001           
         O         O         0.25638   0.24652   0.75635   -1.004548           
         O         O         0.74376   0.75363   0.75663   -1.004744           
         O         O         0.24365   0.25348   0.25629   -1.004714           
         C         C         0.38364   0.79048   0.85118   0.630543  
         C         C         0.44408   0.79896   0.91760   -0.059871           
         C         C         0.44431   0.82411   0.04156   -0.073522           
         C         C         0.88361   0.29057   0.35044   0.631671  
         C         C         0.94402   0.29879   0.41699   -0.059776           
         C         C         0.94444   0.32381   0.54107   -0.073814           
         C         C         0.11637   0.70947   0.35073   0.631461  
         C         C         0.05597   0.70111   0.41720   -0.059830           
         C         C         0.05567   0.67608   0.54127   -0.073970           
         C         C         0.61640   0.20940   0.85043   0.631784  
         C         C         0.55601   0.20126   0.91705   -0.060249           
         C         C         0.55566   0.17621   0.04111   -0.073700           
         C         C         0.20941   0.88367   0.10078   0.630378  
         C         C         0.20104   0.94408   0.16730   -0.058727           
         C         C         0.17598   0.94454   0.29140   -0.074277           
         C         C         0.70931   0.38362   0.60093   0.631210  
         C         C         0.70104   0.44406   0.66744   -0.059862           
         C         C         0.67599   0.44444   0.79154   -0.074059           
         C         C         0.29058   0.61631   0.60088   0.631303  
         C         C         0.29900   0.55590   0.66748   -0.060351           
         C         C         0.32413   0.55556   0.79149   -0.073562           
         C         C         0.79046   0.11631   0.10111   0.629846  
         C         C         0.79887   0.05596   0.16790   -0.059345           
         C         C         0.82419   0.05564   0.29174   -0.074195           
         C         C         0.11646   0.78944   0.90020   0.624261  
         C         C         0.05605   0.79737   0.83299   -0.057907           
         C         C         0.05574   0.82245   0.70894   -0.075723           
         C         C         0.61639   0.28912   0.40043   0.626298  
         C         C         0.55595   0.29724   0.33353   -0.057667           
         C         C         0.55576   0.32230   0.20953   -0.075316           
         C         C         0.38360   0.71034   0.40024   0.624142  
         C         C         0.44405   0.70259   0.33291   -0.057150           
         C         C         0.44438   0.67753   0.20884   -0.075636           
         C         C         0.88366   0.21073   0.90040   0.627136  
         C         C         0.94417   0.20276   0.83347   -0.057637           
         C         C         0.94438   0.17772   0.70943   -0.074311           
         C         C         0.28989   0.88346   0.65017   0.625450  
         C         C         0.29754   0.94392   0.58294   -0.056701           
         C         C         0.32252   0.94428   0.45883   -0.076426           
         C         C         0.78894   0.38361   0.15010   0.627348  
         C         C         0.79721   0.44403   0.08325   -0.057776           
         C         C         0.82235   0.44425   0.95930   -0.075288           
         C         C         0.21038   0.61646   0.15007   0.623928  
         C         C         0.20254   0.55600   0.08286   -0.057703           
         C         C         0.17752   0.55564   0.95875   -0.075241           
         C         C         0.71109   0.11633   0.65023   0.626883  
         C         C         0.70277   0.05588   0.58353   -0.057719           
         C         C         0.67766   0.05562   0.45960   -0.074465           
         C         C         0.61655   0.71048   0.40021   0.623442  
         C         C         0.55613   0.70268   0.33289   -0.057031           
         C         C         0.55581   0.67756   0.20889   -0.074723           
         C         C         0.11666   0.21038   0.89985   0.624174  
         C         C         0.05620   0.20261   0.83286   -0.056988           
         C         C         0.05577   0.17742   0.70896   -0.075141           
         C         C         0.88356   0.78960   0.90016   0.623764  
         C         C         0.94401   0.79741   0.83301   -0.057456           
         C         C         0.94434   0.82247   0.70896   -0.075680           
         C         C         0.38349   0.28949   0.40016   0.625096  
         C         C         0.44396   0.29735   0.33318   -0.057418           
         C         C         0.44439   0.32244   0.20915   -0.075314           
         C         C         0.78947   0.61651   0.15024   0.625340  
         C         C         0.79747   0.55603   0.08329   -0.057909           
         C         C         0.82253   0.55561   0.95923   -0.074767           
         C         C         0.28941   0.11644   0.64987   0.625055  
         C         C         0.29737   0.05598   0.58283   -0.057078           
         C         C         0.32249   0.05567   0.45886   -0.076460           
         C         C         0.71073   0.88349   0.65045   0.626382  
         C         C         0.70258   0.94388   0.58340   -0.057582           
         C         C         0.67750   0.94424   0.45936   -0.076013           
         C         C         0.21067   0.38350   0.14995   0.626062  
         C         C         0.20262   0.44395   0.08291   -0.058214           
         C         C         0.17752   0.44426   0.95890   -0.075555           
         C         C         0.88364   0.70944   0.35102   0.631004  
         C         C         0.94412   0.70102   0.41709   -0.060190           
         C         C         0.94433   0.67590   0.54100   -0.073726           
         C         C         0.38380   0.20933   0.84945   0.632955  
         C         C         0.44415   0.20106   0.91617   -0.060766           
         C         C         0.44429   0.17602   0.04018   -0.073577           
         C         C         0.61636   0.79059   0.85083   0.631030  
         C         C         0.55599   0.79899   0.91760   -0.059704           
         C         C         0.55570   0.82406   0.04168   -0.072936           
         C         C         0.11627   0.29067   0.34943   0.632932  
         C         C         0.05590   0.29892   0.41605   -0.060673           
         C         C         0.05581   0.32394   0.54007   -0.074005           
         C         C         0.70952   0.61642   0.60113   0.631160  
         C         C         0.70113   0.55592   0.66721   -0.060759           
         C         C         0.67596   0.55573   0.79112   -0.073099           
         C         C         0.20944   0.11635   0.10048   0.631362  
         C         C         0.20095   0.05592   0.16663   -0.060797           
         C         C         0.17585   0.05586   0.29058   -0.073364           
         C         C         0.79066   0.88368   0.10090   0.630918  
         C         C         0.79903   0.94404   0.16760   -0.060955           
         C         C         0.82405   0.94427   0.29170   -0.072298           
         C         C         0.29051   0.38365   0.60075   0.630983  
         C         C         0.29894   0.44402   0.66738   -0.059993           
         C         C         0.32410   0.44422   0.79136   -0.073619           
         C         C         0.50004   0.78517   0.85635   -0.089543           
         C         C         0.49998   0.83556   0.10442   -0.097100           
         C         C         -0.00014  0.28493   0.35533   -0.088202           
         C         C         0.00025   0.33522   0.60344   -0.095123           
         C         C         0.00005   0.71495   0.35586   -0.088752           
         C         C         -0.00003  0.66462   0.60400   -0.095524           
         C         C         0.50017   0.21510   0.85541   -0.088292           
         C         C         0.49987   0.16479   0.10358   -0.095535           
         C         C         0.21484   -0.00007  0.10570   -0.089054           
         C         C         0.16452   0.00031   0.35382   -0.095301           
         C         C         0.28512   0.49998   0.60623   -0.089249           
         C         C         0.33554   0.49987   0.85428   -0.096207           
         C         C         0.00003   0.78343   0.89409   -0.086268           
         C         C         0.00004   0.83381   0.64617   -0.093672           
         C         C         0.49990   0.28336   0.39452   -0.087701           
         C         C         0.50014   0.33371   0.14652   -0.093463           
         C         C         0.50009   0.71660   0.39389   -0.087323           
         C         C         0.50011   0.66624   0.14607   -0.094482           
         C         C         0.00028   0.21668   0.89423   -0.088050           
         C         C         -0.00001  0.16627   0.64638   -0.094147           
         C         C         0.28346   -0.00005  0.64388   -0.087474           
         C         C         0.33373   -0.00002  0.39604   -0.093985           
         C         C         0.21653   0.49999   0.14394   -0.086101           
         C         C         0.16624   0.49993   0.89601   -0.094506           
         C         C         0.78341   0.50005   0.14437   -0.087398           
         C         C         0.83370   0.49990   0.89644   -0.093953           
         C         C         0.71657   -0.00015  0.64457   -0.087898           
         C         C         0.66626   -0.00002  0.39670   -0.093628           
         C         C         0.71492   0.49995   0.60599   -0.088367           
         C         C         0.66447   0.50015   0.85413   -0.096120           
         C         C         0.78513   0.00002   0.10657   -0.088307           
         C         C         0.83557   -0.00007  0.35449   -0.097500           
         H         H         0.40015   0.83478   0.08614   0.120209  
         H         H         0.90040   0.33442   0.58617   0.120109  
         H         H         0.09974   0.66554   0.58629   0.120370  
         H         H         0.59967   0.16554   0.08629   0.120392  
         H         H         0.16533   0.90057   0.33669   0.119696  
         H         H         0.66542   0.40043   0.83666   0.120101  
         H         H         0.33480   0.59961   0.83641   0.120011  
         H         H         0.83506   0.09965   0.33661   0.120518  
         H         H         0.09969   0.83333   0.66375   0.119286  
         H         H         0.59984   0.33302   0.16478   0.119099  
         H         H         0.40039   0.66672   0.16375   0.118673  
         H         H         0.90031   0.16698   0.66467   0.118270  
         H         H         0.33337   0.90034   0.41367   0.119384  
         H         H         0.83319   0.40022   0.91449   0.119276  
         H         H         0.16672   0.59959   0.91354   0.118563  
         H         H         0.66700   0.09969   0.41487   0.118274  
         H         H         0.59978   0.66662   0.16384   0.118810  
         H         H         0.09974   0.16639   0.66398   0.119267  
         H         H         0.90034   0.83333   0.66398   0.118906  
         H         H         0.40042   0.33344   0.16417   0.118736  
         H         H         0.83331   0.59956   0.91405   0.118379  
         H         H         0.33338   0.09965   0.41397   0.119087  
         H         H         0.66666   0.90026   0.41429   0.119543  
         H         H         0.16666   0.40029   0.91388   0.119058  
         H         H         0.90016   0.66517   0.58540   0.119841  
         H         H         0.40010   0.16530   0.08449   0.119713  
         H         H         0.59975   0.83467   0.08671   0.119744  
         H         H         0.10000   0.33463   0.58437   0.119774  
         H         H         0.66527   0.59988   0.83552   0.119756  
         H         H         0.16522   0.10005   0.33492   0.119924  
         H         H         0.83449   0.90019   0.33678   0.119824  
         H         H         0.33475   0.40011   0.83606   0.120100  
         H         H         0.50012   0.76589   0.76025   0.135887  
         H         H         0.50027   0.35215   0.04976   0.115148  
         H         H         -0.00041  0.26548   0.25938   0.135281  
         H         H         -0.00002  0.85217   0.54933   0.115327  
         H         H         0.00009   0.73439   0.25990   0.135757  
         H         H         -0.00015  0.14776   0.54969   0.115336  
         H         H         0.50043   0.23460   0.75950   0.135532  
         H         H         0.50010   0.64780   0.04929   0.115579  
         H         H         0.23420   -0.00024  0.00964   0.135470  
         H         H         0.64799   0.00007   0.29981   0.115021  
         H         H         0.26577   0.50000   0.51019   0.136141  
         H         H         0.85201   0.49985   0.79958   0.115341  
         H         H         0.00009   0.76399   0.99010   0.135179  
         H         H         0.00043   0.35358   0.70028   0.113990  
         H         H         0.49980   0.26392   0.49050   0.136089  
         H         H         0.49989   0.85403   0.20122   0.114619  
         H         H         0.50011   0.73601   0.48988   0.134973  
         H         H         0.49966   0.14644   0.20045   0.114429  
         H         H         0.00056   0.23613   0.99020   0.135507  
         H         H         -0.00015  0.64634   0.70088   0.114126  
         H         H         0.26397   0.00000   0.73984   0.135349  
         H         H         0.85405   -0.00014  0.45127   0.114835  
         H         H         0.23596   0.49996   0.23996   0.135300  
         H         H         0.64588   0.50032   0.95081   0.114281  
         H         H         0.76399   0.50005   0.24038   0.135567  
         H         H         0.35405   0.49980   0.95104   0.114369  
         H         H         0.73596   -0.00019  0.74058   0.135961  
         H         H         0.14608   0.00055   0.45060   0.114169  
         H         H         0.73422   0.49984   0.50985   0.135765  
         H         H         0.14790   0.49989   0.79915   0.115698  
         H         H         0.76586   0.00009   0.01046   0.135293  
         H         H         0.35210   0.00003   0.29924   0.115340  
         H         H         0.25381   0.28266   0.96346   0.420706  
         H         H         0.24640   0.21722   0.46360   0.420171  
         H         H         0.71727   0.75382   0.21385   0.420617  
         H         H         0.78295   0.74625   0.71398   0.420556  
         H         H         0.21721   0.25389   0.71363   0.420637  
         H         H         0.28283   0.24603   0.21366   0.420565  
         H         H         0.75365   0.78272   0.46401   0.420559  
         H         H         0.74644   0.71723   0.96384   0.420897  
         H         H         0.71726   0.24745   0.21212   0.419037  
         H         H         0.78258   0.25283   0.71195   0.419058  
         H         H         0.25351   0.71704   0.96388   0.420005  
         H         H         0.24650   0.78278   0.46357   0.419928  
         H         H         0.75308   0.21756   0.46201   0.420442  
         H         H         0.74699   0.28233   0.96064   0.419321  
         H         H         0.21714   0.74645   0.71379   0.420412  
         H         H         0.28288   0.75364   0.21362   0.419956 

