# generated using pymatgen
data_Zn3C55O16
_symmetry_space_group_name_H-M   'P 1'
_cell_length_a   15.82250000
_cell_length_b   16.81960000
_cell_length_c   28.47600000
_cell_angle_alpha   96.70000000
_cell_angle_beta   100.22100000
_cell_angle_gamma   109.59700000
_symmetry_Int_Tables_number   1
_chemical_formula_structural   Zn3C55O16
_chemical_formula_sum   'Zn12 C220 O64'
_cell_volume   6897.96471821
_cell_formula_units_Z   4
loop_
 _symmetry_equiv_pos_site_id
 _symmetry_equiv_pos_as_xyz
  1  'x, y, z'
loop_
 _atom_site_type_symbol
 _atom_site_label
 _atom_site_symmetry_multiplicity
 _atom_site_fract_x
 _atom_site_fract_y
 _atom_site_fract_z
 _atom_site_occupancy
  Zn  Zn1  1  0.288170  0.408170  0.117440  1
  Zn  Zn2  1  0.711830  0.591830  0.882560  1
  Zn  Zn3  1  0.352960  0.594930  0.210570  1
  Zn  Zn4  1  0.647040  0.405070  0.789430  1
  Zn  Zn5  1  0.274590  0.235060  0.774480  1
  Zn  Zn6  1  0.725410  0.764940  0.225520  1
  Zn  Zn7  1  0.073120  0.259380  0.710760  1
  Zn  Zn8  1  0.926880  0.740620  0.289240  1
  Zn  Zn9  1  0.827980  0.025480  0.689680  1
  Zn  Zn10  1  0.172020  0.974520  0.310320  1
  Zn  Zn11  1  0.742460  0.826180  0.593080  1
  Zn  Zn12  1  0.257540  0.173820  0.406920  1
  C  C13  1  0.318000  0.782500  0.978900  1
  C  C14  1  0.682000  0.217500  0.021100  1
  C  C15  1  0.305400  0.749600  0.929200  1
  C  C16  1  0.694600  0.250400  0.070800  1
  C  C17  1  0.312000  0.810900  0.903700  1
  C  C18  1  0.688000  0.189100  0.096300  1
  C  C19  1  0.326200  0.897100  0.925200  1
  C  C20  1  0.673800  0.102900  0.074800  1
  C  C21  1  0.334500  0.929600  0.975200  1
  C  C22  1  0.665500  0.070400  0.024800  1
  C  C23  1  0.331000  0.873400  0.000600  1
  C  C24  1  0.669000  0.126600  0.999400  1
  C  C25  1  0.315300  0.725500  0.009600  1
  C  C26  1  0.684700  0.274500  0.990400  1
  C  C27  1  0.248700  0.640100  0.996600  1
  C  C28  1  0.751300  0.359900  0.003400  1
  C  C29  1  0.251900  0.591100  0.027500  1
  C  C30  1  0.748100  0.408900  0.972500  1
  C  C31  1  0.319700  0.628300  0.071500  1
  C  C32  1  0.680300  0.371700  0.928500  1
  C  C33  1  0.384700  0.715200  0.085200  1
  C  C34  1  0.615300  0.284800  0.914800  1
  C  C35  1  0.385100  0.764500  0.055800  1
  C  C36  1  0.614900  0.235500  0.944200  1
  C  C37  1  0.328400  0.955200  0.896300  1
  C  C38  1  0.671600  0.044800  0.103700  1
  C  C39  1  0.267900  0.997100  0.893100  1
  C  C40  1  0.732100  0.002900  0.106900  1
  C  C41  1  0.276900  0.055600  0.866000  1
  C  C42  1  0.723100  0.944400  0.134000  1
  C  C43  1  0.346800  0.066600  0.842100  1
  C  C44  1  0.653200  0.933400  0.157900  1
  C  C45  1  0.410200  0.027600  0.845700  1
  C  C46  1  0.589800  0.972400  0.154300  1
  C  C47  1  0.398600  0.972000  0.871900  1
  C  C48  1  0.601400  0.028000  0.128100  1
  C  C49  1  0.286300  0.655300  0.900400  1
  C  C50  1  0.713700  0.344700  0.099600  1
  C  C51  1  0.196000  0.596500  0.870500  1
  C  C52  1  0.804000  0.403500  0.129500  1
  C  C53  1  0.180200  0.510400  0.841600  1
  C  C54  1  0.819800  0.489600  0.158400  1
  C  C55  1  0.246500  0.477600  0.842100  1
  C  C56  1  0.753500  0.522400  0.157900  1
  C  C57  1  0.336800  0.534800  0.869500  1
  C  C58  1  0.663200  0.465200  0.130500  1
  C  C59  1  0.355200  0.621600  0.897800  1
  C  C60  1  0.644800  0.378400  0.102200  1
  C  C61  1  0.344100  0.024100  0.000900  1
  C  C62  1  0.655900  0.975900  0.999100  1
  C  C63  1  0.414600  0.099500  0.999100  1
  C  C64  1  0.585400  0.900500  0.000900  1
  C  C65  1  0.416400  0.184200  0.019500  1
  C  C66  1  0.583600  0.815800  0.980500  1
  C  C67  1  0.353000  0.199900  0.043800  1
  C  C68  1  0.647000  0.800100  0.956200  1
  C  C69  1  0.284600  0.123500  0.045400  1
  C  C70  1  0.715400  0.876500  0.954600  1
  C  C71  1  0.281500  0.039300  0.024700  1
  C  C72  1  0.718500  0.960700  0.975300  1
  C  C73  1  0.324100  0.574700  0.104500  1
  C  C74  1  0.675900  0.425300  0.895500  1
  C  C75  1  0.350900  0.128900  0.813400  1
  C  C76  1  0.649100  0.871100  0.186600  1
  C  C77  1  0.229100  0.386900  0.808300  1
  C  C78  1  0.770900  0.613100  0.191700  1
  C  C79  1  0.355000  0.290100  0.063600  1
  C  C80  1  0.645000  0.709900  0.936400  1
  C  C81  1  0.846000  0.232300  0.469100  1
  C  C82  1  0.154000  0.767700  0.530900  1
  C  C83  1  0.861200  0.213100  0.423700  1
  C  C84  1  0.138800  0.786900  0.576300  1
  C  C85  1  0.873800  0.277800  0.402900  1
  C  C86  1  0.126200  0.722200  0.597100  1
  C  C87  1  0.865700  0.359400  0.422500  1
  C  C88  1  0.134300  0.640600  0.577500  1
  C  C89  1  0.845000  0.377400  0.467800  1
  C  C90  1  0.155000  0.622600  0.532200  1
  C  C91  1  0.834100  0.311300  0.488700  1
  C  C92  1  0.165900  0.688700  0.511300  1
  C  C93  1  0.836100  0.168900  0.496900  1
  C  C94  1  0.163900  0.831100  0.503100  1
  C  C95  1  0.783100  0.077800  0.477300  1
  C  C96  1  0.216900  0.922200  0.522700  1
  C  C97  1  0.774700  0.024700  0.506100  1
  C  C98  1  0.225300  0.975300  0.493900  1
  C  C99  1  0.817200  0.064600  0.555700  1
  C  C100  1  0.182800  0.935400  0.444300  1
  C  C101  1  0.873900  0.157200  0.576700  1
  C  C102  1  0.126100  0.842800  0.423300  1
  C  C103  1  0.882700  0.207700  0.547700  1
  C  C104  1  0.117300  0.792300  0.452300  1
  C  C105  1  0.883000  0.427100  0.398900  1
  C  C106  1  0.117000  0.572900  0.601100  1
  C  C107  1  0.964900  0.460100  0.387700  1
  C  C108  1  0.035100  0.539900  0.612300  1
  C  C109  1  0.980100  0.527000  0.365500  1
  C  C110  1  0.019900  0.473000  0.634500  1
  C  C111  1  0.908600  0.558300  0.355100  1
  C  C112  1  0.091400  0.441700  0.644900  1
  C  C113  1  0.827000  0.525300  0.366400  1
  C  C114  1  0.173000  0.474700  0.633600  1
  C  C115  1  0.812800  0.462500  0.388800  1
  C  C116  1  0.187200  0.537500  0.611200  1
  C  C117  1  0.870000  0.126900  0.397800  1
  C  C118  1  0.130000  0.873100  0.602200  1
  C  C119  1  0.947600  0.109100  0.413200  1
  C  C120  1  0.052400  0.890900  0.586800  1
  C  C121  1  0.952000  0.029500  0.388200  1
  C  C122  1  0.048000  0.970500  0.611800  1
  C  C123  1  0.881800  0.965100  0.349000  1
  C  C124  1  0.118200  0.034900  0.651000  1
  C  C125  1  0.804700  0.981000  0.332100  1
  C  C126  1  0.195300  0.019000  0.667900  1
  C  C127  1  0.797500  0.061700  0.358000  1
  C  C128  1  0.202500  0.938300  0.642000  1
  C  C129  1  0.827500  0.456800  0.491000  1
  C  C130  1  0.172500  0.543200  0.509000  1
  C  C131  1  0.894200  0.543800  0.501500  1
  C  C132  1  0.105800  0.456200  0.498500  1
  C  C133  1  0.875100  0.619200  0.523400  1
  C  C134  1  0.124900  0.380800  0.476600  1
  C  C135  1  0.797300  0.611100  0.534800  1
  C  C136  1  0.202700  0.388900  0.465200  1
  C  C137  1  0.727800  0.521700  0.526000  1
  C  C138  1  0.272200  0.478300  0.474000  1
  C  C139  1  0.745400  0.447200  0.503400  1
  C  C140  1  0.254600  0.552800  0.496600  1
  C  C141  1  0.803900  0.007300  0.587700  1
  C  C142  1  0.196100  0.992700  0.412300  1
  C  C143  1  0.920500  0.632400  0.331400  1
  C  C144  1  0.079500  0.367600  0.668600  1
  C  C145  1  0.888500  0.876700  0.322600  1
  C  C146  1  0.111500  0.123300  0.677400  1
  C  C147  1  0.774000  0.689600  0.555400  1
  C  C148  1  0.226000  0.310400  0.444600  1
  C  C149  1  0.322300  0.749600  0.733600  1
  C  C150  1  0.677700  0.250400  0.266400  1
  C  C151  1  0.304300  0.679200  0.752300  1
  C  C152  1  0.695700  0.320800  0.247700  1
  C  C153  1  0.222500  0.650400  0.764700  1
  C  C154  1  0.777500  0.349600  0.235300  1
  C  C155  1  0.156600  0.688900  0.759900  1
  C  C156  1  0.843400  0.311100  0.240100  1
  C  C157  1  0.174100  0.758300  0.740900  1
  C  C158  1  0.825900  0.241700  0.259100  1
  C  C159  1  0.257600  0.788300  0.729200  1
  C  C160  1  0.742400  0.211700  0.270800  1
  C  C161  1  0.104500  0.797100  0.729600  1
  C  C162  1  0.895500  0.202900  0.270400  1
  C  C163  1  0.014600  0.740800  0.699600  1
  C  C164  1  0.985400  0.259200  0.300400  1
  C  C165  1  0.952400  0.776600  0.685900  1
  C  C166  1  0.047600  0.223400  0.314100  1
  C  C167  1  0.981300  0.872400  0.704500  1
  C  C168  1  0.018700  0.127600  0.295500  1
  C  C169  1  0.067700  0.926500  0.733500  1
  C  C170  1  0.932300  0.073500  0.266500  1
  C  C171  1  0.130100  0.888800  0.745700  1
  C  C172  1  0.869900  0.111200  0.254300  1
  C  C173  1  0.370300  0.635700  0.761200  1
  C  C174  1  0.629700  0.364300  0.238800  1
  C  C175  1  0.334800  0.536300  0.744100  1
  C  C176  1  0.665200  0.463700  0.255900  1
  C  C177  1  0.394200  0.495700  0.754000  1
  C  C178  1  0.605800  0.504300  0.246000  1
  C  C179  1  0.487300  0.548100  0.780600  1
  C  C180  1  0.512700  0.451900  0.219400  1
  C  C181  1  0.514100  0.631600  0.802700  1
  C  C182  1  0.485900  0.368400  0.197300  1
  C  C183  1  0.456800  0.682000  0.793200  1
  C  C184  1  0.543200  0.318000  0.206800  1
  C  C185  1  0.074700  0.657900  0.778200  1
  C  C186  1  0.925300  0.342100  0.221800  1
  C  C187  1  0.019300  0.564700  0.763500  1
  C  C188  1  0.980700  0.435300  0.236500  1
  C  C189  1  0.942400  0.532800  0.780600  1
  C  C190  1  0.057600  0.467200  0.219400  1
  C  C191  1  0.922000  0.595200  0.812600  1
  C  C192  1  0.078000  0.404800  0.187400  1
  C  C193  1  0.979100  0.688100  0.828800  1
  C  C194  1  0.020900  0.311900  0.171200  1
  C  C195  1  0.052300  0.717400  0.809800  1
  C  C196  1  0.947700  0.282600  0.190200  1
  C  C197  1  0.406300  0.781100  0.716200  1
  C  C198  1  0.593700  0.218900  0.283800  1
  C  C199  1  0.427900  0.718700  0.685400  1
  C  C200  1  0.572100  0.281300  0.314600  1
  C  C201  1  0.501400  0.750500  0.666900  1
  C  C202  1  0.498600  0.249500  0.333100  1
  C  C203  1  0.559500  0.842800  0.681400  1
  C  C204  1  0.440500  0.157200  0.318600  1
  C  C205  1  0.550100  0.891500  0.721300  1
  C  C206  1  0.449900  0.108500  0.278700  1
  C  C207  1  0.470500  0.858700  0.736700  1
  C  C208  1  0.529500  0.141300  0.263300  1
  C  C209  1  0.910600  0.908900  0.688000  1
  C  C210  1  0.089400  0.091100  0.312000  1
  C  C211  1  0.549100  0.498700  0.789900  1
  C  C212  1  0.450900  0.501300  0.210100  1
  C  C213  1  0.833500  0.560700  0.829000  1
  C  C214  1  0.166500  0.439300  0.171000  1
  C  C215  1  0.639200  0.872100  0.661300  1
  C  C216  1  0.360800  0.127900  0.338700  1
  C  C217  1  0.926400  0.259300  0.802600  1
  C  C218  1  0.073600  0.740700  0.197400  1
  C  C219  1  0.011700  0.293800  0.838500  1
  C  C220  1  0.988300  0.706200  0.161500  1
  C  C221  1  0.029000  0.354000  0.885500  1
  C  C222  1  0.971000  0.646000  0.114500  1
  C  C223  1  0.958700  0.380500  0.898000  1
  C  C224  1  0.041300  0.619500  0.102000  1
  C  C225  1  0.885200  0.361500  0.857400  1
  C  C226  1  0.114800  0.638500  0.142600  1
  C  C227  1  0.863700  0.300700  0.811000  1
  C  C228  1  0.136300  0.699300  0.189000  1
  C  C229  1  0.909500  0.189300  0.756300  1
  C  C230  1  0.090500  0.810700  0.243700  1
  C  C231  1  0.975200  0.444800  0.945500  1
  C  C232  1  0.024800  0.555200  0.054500  1
  O  O233  1  0.284700  0.489900  0.083210  1
  O  O234  1  0.715300  0.510100  0.916790  1
  O  O235  1  0.629300  0.771000  0.517900  1
  O  O236  1  0.370700  0.229000  0.482100  1
  O  O237  1  0.360600  0.617000  0.148100  1
  O  O238  1  0.639400  0.383000  0.851900  1
  O  O239  1  0.417200  0.148800  0.795000  1
  O  O240  1  0.582800  0.851200  0.205000  1
  O  O241  1  0.289100  0.156800  0.809900  1
  O  O242  1  0.710900  0.843200  0.190100  1
  O  O243  1  0.148800  0.346700  0.776600  1
  O  O244  1  0.851200  0.653300  0.223400  1
  O  O245  1  0.286600  0.353900  0.811200  1
  O  O246  1  0.713400  0.646100  0.188800  1
  O  O247  1  0.291700  0.296000  0.085700  1
  O  O248  1  0.708300  0.704000  0.914300  1
  O  O249  1  0.413800  0.357700  0.061100  1
  O  O250  1  0.586200  0.642300  0.938900  1
  O  O251  1  0.820500  0.053200  0.632050  1
  O  O252  1  0.179500  0.946800  0.367950  1
  O  O253  1  0.777800  0.925900  0.569050  1
  O  O254  1  0.222200  0.074100  0.430950  1
  O  O255  1  0.995300  0.657200  0.321000  1
  O  O256  1  0.004700  0.342800  0.679000  1
  O  O257  1  0.853100  0.657200  0.323400  1
  O  O258  1  0.146900  0.342800  0.676600  1
  O  O259  1  0.952600  0.859600  0.341700  1
  O  O260  1  0.047400  0.140400  0.658300  1
  O  O261  1  0.838000  0.828400  0.281800  1
  O  O262  1  0.162000  0.171600  0.718200  1
  O  O263  1  0.707300  0.685500  0.569400  1
  O  O264  1  0.292700  0.314500  0.430600  1
  O  O265  1  0.824100  0.764900  0.555000  1
  O  O266  1  0.175900  0.235100  0.445000  1
  O  O267  1  0.930600  0.989700  0.708300  1
  O  O268  1  0.069400  0.010300  0.291700  1
  O  O269  1  0.834700  0.853500  0.654900  1
  O  O270  1  0.165300  0.146500  0.345100  1
  O  O271  1  0.632700  0.546200  0.816500  1
  O  O272  1  0.367300  0.453800  0.183500  1
  O  O273  1  0.522000  0.413800  0.771100  1
  O  O274  1  0.478000  0.586200  0.228900  1
  O  O275  1  0.822200  0.622000  0.860200  1
  O  O276  1  0.177800  0.378000  0.139800  1
  O  O277  1  0.784600  0.479500  0.813000  1
  O  O278  1  0.215400  0.520500  0.187000  1
  O  O279  1  0.703200  0.947100  0.687400  1
  O  O280  1  0.296800  0.052900  0.312600  1
  O  O281  1  0.639900  0.825300  0.622700  1
  O  O282  1  0.360100  0.174700  0.377300  1
  O  O283  1  0.835600  0.128800  0.741700  1
  O  O284  1  0.164400  0.871200  0.258300  1
  O  O285  1  0.963800  0.191700  0.731700  1
  O  O286  1  0.036200  0.808300  0.268300  1
  O  O287  1  0.984600  0.526700  0.953300  1
  O  O288  1  0.015400  0.473300  0.046700  1
  O  O289  1  0.989800  0.417300  0.985600  1
  O  O290  1  0.010200  0.582700  0.014400  1
  O  O291  1  0.372100  0.723300  0.245700  1
  O  O292  1  0.627900  0.276700  0.754300  1
  O  O293  1  0.336700  0.569800  0.276400  1
  O  O294  1  0.663300  0.430200  0.723600  1
  O  O295  1  0.367600  0.255800  0.738200  1
  O  O296  1  0.632400  0.744200  0.261800  1
