data_image0
_cell_length_a       20.7004
_cell_length_b       20.7004
_cell_length_c       20.7004
_cell_angle_alpha    90
_cell_angle_beta     90
_cell_angle_gamma    90

_symmetry_space_group_name_H-M    "P 1"
_symmetry_int_tables_number       1

loop_
  _symmetry_equiv_pos_as_xyz
  'x, y, z'

loop_
  _atom_site_label
  _atom_site_occupancy
  _atom_site_fract_x
  _atom_site_fract_y
  _atom_site_fract_z
  _atom_site_thermal_displace_type
  _atom_site_B_iso_or_equiv
  _atom_site_type_symbol
  Zr1      1.0000 0.11989  0.00000  0.00000  Biso   1.000  Zr
  Zr2      1.0000 0.11989  0.50000  0.50000  Biso   1.000  Zr
  Zr3      1.0000 0.61989  0.00000  0.50000  Biso   1.000  Zr
  Zr4      1.0000 0.61989  0.50000  0.00000  Biso   1.000  Zr
  Zr5      1.0000 0.88011  0.00000  0.00000  Biso   1.000  Zr
  Zr6      1.0000 0.88011  0.50000  0.50000  Biso   1.000  Zr
  Zr7      1.0000 0.38011  0.00000  0.50000  Biso   1.000  Zr
  Zr8      1.0000 0.38011  0.50000  0.00000  Biso   1.000  Zr
  Zr9      1.0000 0.00000  0.11989  0.00000  Biso   1.000  Zr
  Zr10     1.0000 0.00000  0.61989  0.50000  Biso   1.000  Zr
  Zr11     1.0000 0.50000  0.11989  0.50000  Biso   1.000  Zr
  Zr12     1.0000 0.50000  0.61989  0.00000  Biso   1.000  Zr
  Zr13     1.0000 0.00000  0.88011  0.00000  Biso   1.000  Zr
  Zr14     1.0000 0.00000  0.38011  0.50000  Biso   1.000  Zr
  Zr15     1.0000 0.50000  0.88011  0.50000  Biso   1.000  Zr
  Zr16     1.0000 0.50000  0.38011  0.00000  Biso   1.000  Zr
  Zr17     1.0000 0.00000  0.00000  0.11989  Biso   1.000  Zr
  Zr18     1.0000 0.00000  0.50000  0.61989  Biso   1.000  Zr
  Zr19     1.0000 0.50000  0.00000  0.61989  Biso   1.000  Zr
  Zr20     1.0000 0.50000  0.50000  0.11989  Biso   1.000  Zr
  Zr21     1.0000 0.00000  0.00000  0.88011  Biso   1.000  Zr
  Zr22     1.0000 0.00000  0.50000  0.38011  Biso   1.000  Zr
  Zr23     1.0000 0.50000  0.00000  0.38011  Biso   1.000  Zr
  Zr24     1.0000 0.50000  0.50000  0.88011  Biso   1.000  Zr
  O1       1.0000 0.17047  0.00000  0.09530  Biso   1.000  O
  C1       1.0000 0.26750  0.00000  0.18440  Biso   1.000  C
  H1       1.0000 0.27872  0.00000  0.13048  Biso   1.000  H
  O2       1.0000 0.17047  0.50000  0.59530  Biso   1.000  O
  C2       1.0000 0.26750  0.50000  0.68440  Biso   1.000  C
  H2       1.0000 0.27872  0.50000  0.63048  Biso   1.000  H
  O3       1.0000 0.67047  0.00000  0.59530  Biso   1.000  O
  C3       1.0000 0.76750  0.00000  0.68440  Biso   1.000  C
  H3       1.0000 0.77872  0.00000  0.63048  Biso   1.000  H
  O4       1.0000 0.67047  0.50000  0.09530  Biso   1.000  O
  C4       1.0000 0.76750  0.50000  0.18440  Biso   1.000  C
  H4       1.0000 0.77872  0.50000  0.13048  Biso   1.000  H
  O5       1.0000 0.82953  0.00000  0.09530  Biso   1.000  O
  C5       1.0000 0.73250  0.00000  0.18440  Biso   1.000  C
  H5       1.0000 0.72128  0.00000  0.13048  Biso   1.000  H
  O6       1.0000 0.82953  0.50000  0.59530  Biso   1.000  O
  C6       1.0000 0.73250  0.50000  0.68440  Biso   1.000  C
  H6       1.0000 0.72128  0.50000  0.63048  Biso   1.000  H
  O7       1.0000 0.32953  0.00000  0.59530  Biso   1.000  O
  C7       1.0000 0.23250  0.00000  0.68440  Biso   1.000  C
  H7       1.0000 0.22128  0.00000  0.63048  Biso   1.000  H
  O8       1.0000 0.32953  0.50000  0.09530  Biso   1.000  O
  C8       1.0000 0.23250  0.50000  0.18440  Biso   1.000  C
  H8       1.0000 0.22128  0.50000  0.13048  Biso   1.000  H
  O9       1.0000 0.82953  0.00000  0.90470  Biso   1.000  O
  C9       1.0000 0.73250  0.00000  0.81560  Biso   1.000  C
  H9       1.0000 0.72128  0.00000  0.86952  Biso   1.000  H
  O10      1.0000 0.82953  0.50000  0.40470  Biso   1.000  O
  C10      1.0000 0.73250  0.50000  0.31560  Biso   1.000  C
  H10      1.0000 0.72128  0.50000  0.36952  Biso   1.000  H
  O11      1.0000 0.32953  0.00000  0.40470  Biso   1.000  O
  C11      1.0000 0.23250  0.00000  0.31560  Biso   1.000  C
  H11      1.0000 0.22128  0.00000  0.36952  Biso   1.000  H
  O12      1.0000 0.32953  0.50000  0.90470  Biso   1.000  O
  C12      1.0000 0.23250  0.50000  0.81560  Biso   1.000  C
  H12      1.0000 0.22128  0.50000  0.86952  Biso   1.000  H
  O13      1.0000 0.17047  0.00000  0.90470  Biso   1.000  O
  C13      1.0000 0.26750  0.00000  0.81560  Biso   1.000  C
  H13      1.0000 0.27872  0.00000  0.86952  Biso   1.000  H
  O14      1.0000 0.17047  0.50000  0.40470  Biso   1.000  O
  C14      1.0000 0.26750  0.50000  0.31560  Biso   1.000  C
  H14      1.0000 0.27872  0.50000  0.36952  Biso   1.000  H
  O15      1.0000 0.67047  0.00000  0.40470  Biso   1.000  O
  C15      1.0000 0.76750  0.00000  0.31560  Biso   1.000  C
  H15      1.0000 0.77872  0.00000  0.36952  Biso   1.000  H
  O16      1.0000 0.67047  0.50000  0.90470  Biso   1.000  O
  C16      1.0000 0.76750  0.50000  0.81560  Biso   1.000  C
  H16      1.0000 0.77872  0.50000  0.86952  Biso   1.000  H
  O17      1.0000 0.09530  0.17047  0.00000  Biso   1.000  O
  C17      1.0000 0.18440  0.26750  0.00000  Biso   1.000  C
  H17      1.0000 0.13048  0.27872  0.00000  Biso   1.000  H
  O18      1.0000 0.09530  0.67047  0.50000  Biso   1.000  O
  C18      1.0000 0.18440  0.76750  0.50000  Biso   1.000  C
  H18      1.0000 0.13048  0.77872  0.50000  Biso   1.000  H
  O19      1.0000 0.59530  0.17047  0.50000  Biso   1.000  O
  C19      1.0000 0.68440  0.26750  0.50000  Biso   1.000  C
  H19      1.0000 0.63048  0.27872  0.50000  Biso   1.000  H
  O20      1.0000 0.59530  0.67047  0.00000  Biso   1.000  O
  C20      1.0000 0.68440  0.76750  0.00000  Biso   1.000  C
  H20      1.0000 0.63048  0.77872  0.00000  Biso   1.000  H
  O21      1.0000 0.09530  0.82953  0.00000  Biso   1.000  O
  C21      1.0000 0.18440  0.73250  0.00000  Biso   1.000  C
  H21      1.0000 0.13048  0.72128  0.00000  Biso   1.000  H
  O22      1.0000 0.09530  0.32953  0.50000  Biso   1.000  O
  C22      1.0000 0.18440  0.23250  0.50000  Biso   1.000  C
  H22      1.0000 0.13048  0.22128  0.50000  Biso   1.000  H
  O23      1.0000 0.59530  0.82953  0.50000  Biso   1.000  O
  C23      1.0000 0.68440  0.73250  0.50000  Biso   1.000  C
  H23      1.0000 0.63048  0.72128  0.50000  Biso   1.000  H
  O24      1.0000 0.59530  0.32953  0.00000  Biso   1.000  O
  C24      1.0000 0.68440  0.23250  0.00000  Biso   1.000  C
  H24      1.0000 0.63048  0.22128  0.00000  Biso   1.000  H
  O25      1.0000 0.90470  0.82953  0.00000  Biso   1.000  O
  C25      1.0000 0.81560  0.73250  0.00000  Biso   1.000  C
  H25      1.0000 0.86952  0.72128  0.00000  Biso   1.000  H
  O26      1.0000 0.90470  0.32953  0.50000  Biso   1.000  O
  C26      1.0000 0.81560  0.23250  0.50000  Biso   1.000  C
  H26      1.0000 0.86952  0.22128  0.50000  Biso   1.000  H
  O27      1.0000 0.40470  0.82953  0.50000  Biso   1.000  O
  C27      1.0000 0.31560  0.73250  0.50000  Biso   1.000  C
  H27      1.0000 0.36952  0.72128  0.50000  Biso   1.000  H
  O28      1.0000 0.40470  0.32953  0.00000  Biso   1.000  O
  C28      1.0000 0.31560  0.23250  0.00000  Biso   1.000  C
  H28      1.0000 0.36952  0.22128  0.00000  Biso   1.000  H
  O29      1.0000 0.90470  0.17047  0.00000  Biso   1.000  O
  C29      1.0000 0.81560  0.26750  0.00000  Biso   1.000  C
  H29      1.0000 0.86952  0.27872  0.00000  Biso   1.000  H
  O30      1.0000 0.90470  0.67047  0.50000  Biso   1.000  O
  C30      1.0000 0.81560  0.76750  0.50000  Biso   1.000  C
  H30      1.0000 0.86952  0.77872  0.50000  Biso   1.000  H
  O31      1.0000 0.40470  0.17047  0.50000  Biso   1.000  O
  C31      1.0000 0.31560  0.26750  0.50000  Biso   1.000  C
  H31      1.0000 0.36952  0.27872  0.50000  Biso   1.000  H
  O32      1.0000 0.40470  0.67047  0.00000  Biso   1.000  O
  C32      1.0000 0.31560  0.76750  0.00000  Biso   1.000  C
  H32      1.0000 0.36952  0.77872  0.00000  Biso   1.000  H
  O33      1.0000 0.00000  0.09530  0.17047  Biso   1.000  O
  C33      1.0000 0.00000  0.18440  0.26750  Biso   1.000  C
  H33      1.0000 0.00000  0.13048  0.27872  Biso   1.000  H
  O34      1.0000 0.00000  0.59530  0.67047  Biso   1.000  O
  C34      1.0000 0.00000  0.68440  0.76750  Biso   1.000  C
  H34      1.0000 0.00000  0.63048  0.77872  Biso   1.000  H
  O35      1.0000 0.50000  0.09530  0.67047  Biso   1.000  O
  C35      1.0000 0.50000  0.18440  0.76750  Biso   1.000  C
  H35      1.0000 0.50000  0.13048  0.77872  Biso   1.000  H
  O36      1.0000 0.50000  0.59530  0.17047  Biso   1.000  O
  C36      1.0000 0.50000  0.68440  0.26750  Biso   1.000  C
  H36      1.0000 0.50000  0.63048  0.27872  Biso   1.000  H
  O37      1.0000 0.00000  0.09530  0.82953  Biso   1.000  O
  C37      1.0000 0.00000  0.18440  0.73250  Biso   1.000  C
  H37      1.0000 0.00000  0.13048  0.72128  Biso   1.000  H
  O38      1.0000 0.00000  0.59530  0.32953  Biso   1.000  O
  C38      1.0000 0.00000  0.68440  0.23250  Biso   1.000  C
  H38      1.0000 0.00000  0.63048  0.22128  Biso   1.000  H
  O39      1.0000 0.50000  0.09530  0.32953  Biso   1.000  O
  C39      1.0000 0.50000  0.18440  0.23250  Biso   1.000  C
  H39      1.0000 0.50000  0.13048  0.22128  Biso   1.000  H
  O40      1.0000 0.50000  0.59530  0.82953  Biso   1.000  O
  C40      1.0000 0.50000  0.68440  0.73250  Biso   1.000  C
  H40      1.0000 0.50000  0.63048  0.72128  Biso   1.000  H
  O41      1.0000 0.00000  0.90470  0.82953  Biso   1.000  O
  C41      1.0000 0.00000  0.81560  0.73250  Biso   1.000  C
  H41      1.0000 0.00000  0.86952  0.72128  Biso   1.000  H
  O42      1.0000 0.00000  0.40470  0.32953  Biso   1.000  O
  C42      1.0000 0.00000  0.31560  0.23250  Biso   1.000  C
  H42      1.0000 0.00000  0.36952  0.22128  Biso   1.000  H
  O43      1.0000 0.50000  0.90470  0.32953  Biso   1.000  O
  C43      1.0000 0.50000  0.81560  0.23250  Biso   1.000  C
  H43      1.0000 0.50000  0.86952  0.22128  Biso   1.000  H
  O44      1.0000 0.50000  0.40470  0.82953  Biso   1.000  O
  C44      1.0000 0.50000  0.31560  0.73250  Biso   1.000  C
  H44      1.0000 0.50000  0.36952  0.72128  Biso   1.000  H
  O45      1.0000 0.00000  0.90470  0.17047  Biso   1.000  O
  C45      1.0000 0.00000  0.81560  0.26750  Biso   1.000  C
  H45      1.0000 0.00000  0.86952  0.27872  Biso   1.000  H
  O46      1.0000 0.00000  0.40470  0.67047  Biso   1.000  O
  C46      1.0000 0.00000  0.31560  0.76750  Biso   1.000  C
  H46      1.0000 0.00000  0.36952  0.77872  Biso   1.000  H
  O47      1.0000 0.50000  0.90470  0.67047  Biso   1.000  O
  C47      1.0000 0.50000  0.81560  0.76750  Biso   1.000  C
  H47      1.0000 0.50000  0.86952  0.77872  Biso   1.000  H
  O48      1.0000 0.50000  0.40470  0.17047  Biso   1.000  O
  C48      1.0000 0.50000  0.31560  0.26750  Biso   1.000  C
  H48      1.0000 0.50000  0.36952  0.27872  Biso   1.000  H
  O49      1.0000 0.00000  0.17047  0.90470  Biso   1.000  O
  C49      1.0000 0.00000  0.26750  0.81560  Biso   1.000  C
  H49      1.0000 0.00000  0.27872  0.86952  Biso   1.000  H
  O50      1.0000 0.00000  0.67047  0.40470  Biso   1.000  O
  C50      1.0000 0.00000  0.76750  0.31560  Biso   1.000  C
  H50      1.0000 0.00000  0.77872  0.36952  Biso   1.000  H
  O51      1.0000 0.50000  0.17047  0.40470  Biso   1.000  O
  C51      1.0000 0.50000  0.26750  0.31560  Biso   1.000  C
  H51      1.0000 0.50000  0.27872  0.36952  Biso   1.000  H
  O52      1.0000 0.50000  0.67047  0.90470  Biso   1.000  O
  C52      1.0000 0.50000  0.76750  0.81560  Biso   1.000  C
  H52      1.0000 0.50000  0.77872  0.86952  Biso   1.000  H
  O53      1.0000 0.00000  0.82953  0.90470  Biso   1.000  O
  C53      1.0000 0.00000  0.73250  0.81560  Biso   1.000  C
  H53      1.0000 0.00000  0.72128  0.86952  Biso   1.000  H
  O54      1.0000 0.00000  0.32953  0.40470  Biso   1.000  O
  C54      1.0000 0.00000  0.23250  0.31560  Biso   1.000  C
  H54      1.0000 0.00000  0.22128  0.36952  Biso   1.000  H
  O55      1.0000 0.50000  0.82953  0.40470  Biso   1.000  O
  C55      1.0000 0.50000  0.73250  0.31560  Biso   1.000  C
  H55      1.0000 0.50000  0.72128  0.36952  Biso   1.000  H
  O56      1.0000 0.50000  0.32953  0.90470  Biso   1.000  O
  C56      1.0000 0.50000  0.23250  0.81560  Biso   1.000  C
  H56      1.0000 0.50000  0.22128  0.86952  Biso   1.000  H
  O57      1.0000 0.00000  0.82953  0.09530  Biso   1.000  O
  C57      1.0000 0.00000  0.73250  0.18440  Biso   1.000  C
  H57      1.0000 0.00000  0.72128  0.13048  Biso   1.000  H
  O58      1.0000 0.00000  0.32953  0.59530  Biso   1.000  O
  C58      1.0000 0.00000  0.23250  0.68440  Biso   1.000  C
  H58      1.0000 0.00000  0.22128  0.63048  Biso   1.000  H
  O59      1.0000 0.50000  0.82953  0.59530  Biso   1.000  O
  C59      1.0000 0.50000  0.73250  0.68440  Biso   1.000  C
  H59      1.0000 0.50000  0.72128  0.63048  Biso   1.000  H
  O60      1.0000 0.50000  0.32953  0.09530  Biso   1.000  O
  C60      1.0000 0.50000  0.23250  0.18440  Biso   1.000  C
  H60      1.0000 0.50000  0.22128  0.13048  Biso   1.000  H
  O61      1.0000 0.00000  0.17047  0.09530  Biso   1.000  O
  C61      1.0000 0.00000  0.26750  0.18440  Biso   1.000  C
  H61      1.0000 0.00000  0.27872  0.13048  Biso   1.000  H
  O62      1.0000 0.00000  0.67047  0.59530  Biso   1.000  O
  C62      1.0000 0.00000  0.76750  0.68440  Biso   1.000  C
  H62      1.0000 0.00000  0.77872  0.63048  Biso   1.000  H
  O63      1.0000 0.50000  0.17047  0.59530  Biso   1.000  O
  C63      1.0000 0.50000  0.26750  0.68440  Biso   1.000  C
  H63      1.0000 0.50000  0.27872  0.63048  Biso   1.000  H
  O64      1.0000 0.50000  0.67047  0.09530  Biso   1.000  O
  C64      1.0000 0.50000  0.76750  0.18440  Biso   1.000  C
  H64      1.0000 0.50000  0.77872  0.13048  Biso   1.000  H
  O65      1.0000 0.17047  0.09530  0.00000  Biso   1.000  O
  C65      1.0000 0.26750  0.18440  0.00000  Biso   1.000  C
  H65      1.0000 0.27872  0.13048  0.00000  Biso   1.000  H
  O66      1.0000 0.17047  0.59530  0.50000  Biso   1.000  O
  C66      1.0000 0.26750  0.68440  0.50000  Biso   1.000  C
  H66      1.0000 0.27872  0.63048  0.50000  Biso   1.000  H
  O67      1.0000 0.67047  0.09530  0.50000  Biso   1.000  O
  C67      1.0000 0.76750  0.18440  0.50000  Biso   1.000  C
  H67      1.0000 0.77872  0.13048  0.50000  Biso   1.000  H
  O68      1.0000 0.67047  0.59530  0.00000  Biso   1.000  O
  C68      1.0000 0.76750  0.68440  0.00000  Biso   1.000  C
  H68      1.0000 0.77872  0.63048  0.00000  Biso   1.000  H
  O69      1.0000 0.82953  0.09530  0.00000  Biso   1.000  O
  C69      1.0000 0.73250  0.18440  0.00000  Biso   1.000  C
  H69      1.0000 0.72128  0.13048  0.00000  Biso   1.000  H
  O70      1.0000 0.82953  0.59530  0.50000  Biso   1.000  O
  C70      1.0000 0.73250  0.68440  0.50000  Biso   1.000  C
  H70      1.0000 0.72128  0.63048  0.50000  Biso   1.000  H
  O71      1.0000 0.32953  0.09530  0.50000  Biso   1.000  O
  C71      1.0000 0.23250  0.18440  0.50000  Biso   1.000  C
  H71      1.0000 0.22128  0.13048  0.50000  Biso   1.000  H
  O72      1.0000 0.32953  0.59530  0.00000  Biso   1.000  O
  C72      1.0000 0.23250  0.68440  0.00000  Biso   1.000  C
  H72      1.0000 0.22128  0.63048  0.00000  Biso   1.000  H
  O73      1.0000 0.82953  0.90470  0.00000  Biso   1.000  O
  C73      1.0000 0.73250  0.81560  0.00000  Biso   1.000  C
  H73      1.0000 0.72128  0.86952  0.00000  Biso   1.000  H
  O74      1.0000 0.82953  0.40470  0.50000  Biso   1.000  O
  C74      1.0000 0.73250  0.31560  0.50000  Biso   1.000  C
  H74      1.0000 0.72128  0.36952  0.50000  Biso   1.000  H
  O75      1.0000 0.32953  0.90470  0.50000  Biso   1.000  O
  C75      1.0000 0.23250  0.81560  0.50000  Biso   1.000  C
  H75      1.0000 0.22128  0.86952  0.50000  Biso   1.000  H
  O76      1.0000 0.32953  0.40470  0.00000  Biso   1.000  O
  C76      1.0000 0.23250  0.31560  0.00000  Biso   1.000  C
  H76      1.0000 0.22128  0.36952  0.00000  Biso   1.000  H
  O77      1.0000 0.17047  0.90470  0.00000  Biso   1.000  O
  C77      1.0000 0.26750  0.81560  0.00000  Biso   1.000  C
  H77      1.0000 0.27872  0.86952  0.00000  Biso   1.000  H
  O78      1.0000 0.17047  0.40470  0.50000  Biso   1.000  O
  C78      1.0000 0.26750  0.31560  0.50000  Biso   1.000  C
  H78      1.0000 0.27872  0.36952  0.50000  Biso   1.000  H
  O79      1.0000 0.67047  0.90470  0.50000  Biso   1.000  O
  C79      1.0000 0.76750  0.81560  0.50000  Biso   1.000  C
  H79      1.0000 0.77872  0.86952  0.50000  Biso   1.000  H
  O80      1.0000 0.67047  0.40470  0.00000  Biso   1.000  O
  C80      1.0000 0.76750  0.31560  0.00000  Biso   1.000  C
  H80      1.0000 0.77872  0.36952  0.00000  Biso   1.000  H
  O81      1.0000 0.09530  0.00000  0.82953  Biso   1.000  O
  C81      1.0000 0.18440  0.00000  0.73250  Biso   1.000  C
  H81      1.0000 0.13048  0.00000  0.72128  Biso   1.000  H
  O82      1.0000 0.09530  0.50000  0.32953  Biso   1.000  O
  C82      1.0000 0.18440  0.50000  0.23250  Biso   1.000  C
  H82      1.0000 0.13048  0.50000  0.22128  Biso   1.000  H
  O83      1.0000 0.59530  0.00000  0.32953  Biso   1.000  O
  C83      1.0000 0.68440  0.00000  0.23250  Biso   1.000  C
  H83      1.0000 0.63048  0.00000  0.22128  Biso   1.000  H
  O84      1.0000 0.59530  0.50000  0.82953  Biso   1.000  O
  C84      1.0000 0.68440  0.50000  0.73250  Biso   1.000  C
  H84      1.0000 0.63048  0.50000  0.72128  Biso   1.000  H
  O85      1.0000 0.09530  0.00000  0.17047  Biso   1.000  O
  C85      1.0000 0.18440  0.00000  0.26750  Biso   1.000  C
  H85      1.0000 0.13048  0.00000  0.27872  Biso   1.000  H
  O86      1.0000 0.09530  0.50000  0.67047  Biso   1.000  O
  C86      1.0000 0.18440  0.50000  0.76750  Biso   1.000  C
  H86      1.0000 0.13048  0.50000  0.77872  Biso   1.000  H
  O87      1.0000 0.59530  0.00000  0.67047  Biso   1.000  O
  C87      1.0000 0.68440  0.00000  0.76750  Biso   1.000  C
  H87      1.0000 0.63048  0.00000  0.77872  Biso   1.000  H
  O88      1.0000 0.59530  0.50000  0.17047  Biso   1.000  O
  C88      1.0000 0.68440  0.50000  0.26750  Biso   1.000  C
  H88      1.0000 0.63048  0.50000  0.27872  Biso   1.000  H
  O89      1.0000 0.90470  0.00000  0.17047  Biso   1.000  O
  C89      1.0000 0.81560  0.00000  0.26750  Biso   1.000  C
  H89      1.0000 0.86952  0.00000  0.27872  Biso   1.000  H
  O90      1.0000 0.90470  0.50000  0.67047  Biso   1.000  O
  C90      1.0000 0.81560  0.50000  0.76750  Biso   1.000  C
  H90      1.0000 0.86952  0.50000  0.77872  Biso   1.000  H
  O91      1.0000 0.40470  0.00000  0.67047  Biso   1.000  O
  C91      1.0000 0.31560  0.00000  0.76750  Biso   1.000  C
  H91      1.0000 0.36952  0.00000  0.77872  Biso   1.000  H
  O92      1.0000 0.40470  0.50000  0.17047  Biso   1.000  O
  C92      1.0000 0.31560  0.50000  0.26750  Biso   1.000  C
  H92      1.0000 0.36952  0.50000  0.27872  Biso   1.000  H
  O93      1.0000 0.90470  0.00000  0.82953  Biso   1.000  O
  C93      1.0000 0.81560  0.00000  0.73250  Biso   1.000  C
  H93      1.0000 0.86952  0.00000  0.72128  Biso   1.000  H
  O94      1.0000 0.90470  0.50000  0.32953  Biso   1.000  O
  C94      1.0000 0.81560  0.50000  0.23250  Biso   1.000  C
  H94      1.0000 0.86952  0.50000  0.22128  Biso   1.000  H
  O95      1.0000 0.40470  0.00000  0.32953  Biso   1.000  O
  C95      1.0000 0.31560  0.00000  0.23250  Biso   1.000  C
  H95      1.0000 0.36952  0.00000  0.22128  Biso   1.000  H
  O96      1.0000 0.40470  0.50000  0.82953  Biso   1.000  O
  C96      1.0000 0.31560  0.50000  0.73250  Biso   1.000  C
  H96      1.0000 0.36952  0.50000  0.72128  Biso   1.000  H
  O97      1.0000 0.05610  0.44390  0.44390  Biso   1.000  O
  O98      1.0000 0.55610  0.94390  0.44390  Biso   1.000  O
  O99      1.0000 0.55610  0.44390  0.94390  Biso   1.000  O
  O100     1.0000 0.44390  0.05610  0.44390  Biso   1.000  O
  O101     1.0000 0.44390  0.55610  0.94390  Biso   1.000  O
  O102     1.0000 0.94390  0.94390  0.05610  Biso   1.000  O
  O103     1.0000 0.94390  0.44390  0.55610  Biso   1.000  O
  O104     1.0000 0.05610  0.05610  0.05610  Biso   1.000  O
  O105     1.0000 0.55610  0.55610  0.05610  Biso   1.000  O
  O106     1.0000 0.94390  0.05610  0.05610  Biso   1.000  O
  O107     1.0000 0.94390  0.55610  0.55610  Biso   1.000  O
  O108     1.0000 0.44390  0.05610  0.55610  Biso   1.000  O
  O109     1.0000 0.44390  0.55610  0.05610  Biso   1.000  O
  O110     1.0000 0.05610  0.94390  0.05610  Biso   1.000  O
  O111     1.0000 0.05610  0.44390  0.55610  Biso   1.000  O
  O112     1.0000 0.55610  0.94390  0.55610  Biso   1.000  O
  O113     1.0000 0.55610  0.44390  0.05610  Biso   1.000  O
  O114     1.0000 0.94390  0.94390  0.94390  Biso   1.000  O
  O115     1.0000 0.94390  0.44390  0.44390  Biso   1.000  O
  O116     1.0000 0.44390  0.94390  0.44390  Biso   1.000  O
  O117     1.0000 0.44390  0.44390  0.94390  Biso   1.000  O
  O118     1.0000 0.05610  0.05610  0.94390  Biso   1.000  O
  O119     1.0000 0.05610  0.55610  0.44390  Biso   1.000  O
  O120     1.0000 0.55610  0.05610  0.44390  Biso   1.000  O
  C97      1.0000 0.15360  0.00000  0.84640  Biso   1.000  C
  C98      1.0000 0.15360  0.50000  0.34640  Biso   1.000  C
  C99      1.0000 0.65360  0.00000  0.34640  Biso   1.000  C
  C100     1.0000 0.65360  0.50000  0.84640  Biso   1.000  C
  C101     1.0000 0.84640  0.00000  0.84640  Biso   1.000  C
  C102     1.0000 0.84640  0.50000  0.34640  Biso   1.000  C
  C103     1.0000 0.34640  0.00000  0.34640  Biso   1.000  C
  C104     1.0000 0.34640  0.50000  0.84640  Biso   1.000  C
  C105     1.0000 0.84640  0.00000  0.15360  Biso   1.000  C
  C106     1.0000 0.84640  0.50000  0.65360  Biso   1.000  C
  C107     1.0000 0.34640  0.00000  0.65360  Biso   1.000  C
  C108     1.0000 0.34640  0.50000  0.15360  Biso   1.000  C
  C109     1.0000 0.15360  0.00000  0.15360  Biso   1.000  C
  C110     1.0000 0.15360  0.50000  0.65360  Biso   1.000  C
  C111     1.0000 0.65360  0.00000  0.65360  Biso   1.000  C
  C112     1.0000 0.65360  0.50000  0.15360  Biso   1.000  C
  C113     1.0000 0.84640  0.15360  0.00000  Biso   1.000  C
  C114     1.0000 0.84640  0.65360  0.50000  Biso   1.000  C
  C115     1.0000 0.34640  0.15360  0.50000  Biso   1.000  C
  C116     1.0000 0.34640  0.65360  0.00000  Biso   1.000  C
  C117     1.0000 0.84640  0.84640  0.00000  Biso   1.000  C
  C118     1.0000 0.84640  0.34640  0.50000  Biso   1.000  C
  C119     1.0000 0.34640  0.84640  0.50000  Biso   1.000  C
  C120     1.0000 0.34640  0.34640  0.00000  Biso   1.000  C
  C121     1.0000 0.15360  0.84640  0.00000  Biso   1.000  C
  C122     1.0000 0.15360  0.34640  0.50000  Biso   1.000  C
  C123     1.0000 0.65360  0.84640  0.50000  Biso   1.000  C
  C124     1.0000 0.65360  0.34640  0.00000  Biso   1.000  C
  C125     1.0000 0.15360  0.15360  0.00000  Biso   1.000  C
  C126     1.0000 0.15360  0.65360  0.50000  Biso   1.000  C
  C127     1.0000 0.65360  0.15360  0.50000  Biso   1.000  C
  C128     1.0000 0.65360  0.65360  0.00000  Biso   1.000  C
  C129     1.0000 0.00000  0.84640  0.15360  Biso   1.000  C
  C130     1.0000 0.00000  0.34640  0.65360  Biso   1.000  C
  C131     1.0000 0.50000  0.84640  0.65360  Biso   1.000  C
  C132     1.0000 0.50000  0.34640  0.15360  Biso   1.000  C
  C133     1.0000 0.00000  0.84640  0.84640  Biso   1.000  C
  C134     1.0000 0.00000  0.34640  0.34640  Biso   1.000  C
  C135     1.0000 0.50000  0.84640  0.34640  Biso   1.000  C
  C136     1.0000 0.50000  0.34640  0.84640  Biso   1.000  C
  C137     1.0000 0.00000  0.15360  0.84640  Biso   1.000  C
  C138     1.0000 0.00000  0.65360  0.34640  Biso   1.000  C
  C139     1.0000 0.50000  0.15360  0.34640  Biso   1.000  C
  C140     1.0000 0.50000  0.65360  0.84640  Biso   1.000  C
  C141     1.0000 0.00000  0.15360  0.15360  Biso   1.000  C
  C142     1.0000 0.00000  0.65360  0.65360  Biso   1.000  C
  C143     1.0000 0.50000  0.15360  0.65360  Biso   1.000  C
  C144     1.0000 0.50000  0.65360  0.15360  Biso   1.000  C
  C145     1.0000 0.20500  0.00000  0.20500  Biso   1.000  C
  C146     1.0000 0.20500  0.50000  0.70500  Biso   1.000  C
  C147     1.0000 0.70500  0.00000  0.70500  Biso   1.000  C
  C148     1.0000 0.70500  0.50000  0.20500  Biso   1.000  C
  C149     1.0000 0.79500  0.00000  0.20500  Biso   1.000  C
  C150     1.0000 0.79500  0.50000  0.70500  Biso   1.000  C
  C151     1.0000 0.29500  0.00000  0.70500  Biso   1.000  C
  C152     1.0000 0.29500  0.50000  0.20500  Biso   1.000  C
  C153     1.0000 0.79500  0.00000  0.79500  Biso   1.000  C
  C154     1.0000 0.79500  0.50000  0.29500  Biso   1.000  C
  C155     1.0000 0.29500  0.00000  0.29500  Biso   1.000  C
  C156     1.0000 0.29500  0.50000  0.79500  Biso   1.000  C
  C157     1.0000 0.20500  0.00000  0.79500  Biso   1.000  C
  C158     1.0000 0.20500  0.50000  0.29500  Biso   1.000  C
  C159     1.0000 0.70500  0.00000  0.29500  Biso   1.000  C
  C160     1.0000 0.70500  0.50000  0.79500  Biso   1.000  C
  C161     1.0000 0.20500  0.20500  0.00000  Biso   1.000  C
  C162     1.0000 0.20500  0.70500  0.50000  Biso   1.000  C
  C163     1.0000 0.70500  0.20500  0.50000  Biso   1.000  C
  C164     1.0000 0.70500  0.70500  0.00000  Biso   1.000  C
  C165     1.0000 0.20500  0.79500  0.00000  Biso   1.000  C
  C166     1.0000 0.20500  0.29500  0.50000  Biso   1.000  C
  C167     1.0000 0.70500  0.79500  0.50000  Biso   1.000  C
  C168     1.0000 0.70500  0.29500  0.00000  Biso   1.000  C
  C169     1.0000 0.79500  0.79500  0.00000  Biso   1.000  C
  C170     1.0000 0.79500  0.29500  0.50000  Biso   1.000  C
  C171     1.0000 0.29500  0.79500  0.50000  Biso   1.000  C
  C172     1.0000 0.29500  0.29500  0.00000  Biso   1.000  C
  C173     1.0000 0.79500  0.20500  0.00000  Biso   1.000  C
  C174     1.0000 0.79500  0.70500  0.50000  Biso   1.000  C
  C175     1.0000 0.29500  0.20500  0.50000  Biso   1.000  C
  C176     1.0000 0.29500  0.70500  0.00000  Biso   1.000  C
  C177     1.0000 0.00000  0.20500  0.20500  Biso   1.000  C
  C178     1.0000 0.00000  0.70500  0.70500  Biso   1.000  C
  C179     1.0000 0.50000  0.20500  0.70500  Biso   1.000  C
  C180     1.0000 0.50000  0.70500  0.20500  Biso   1.000  C
  C181     1.0000 0.00000  0.20500  0.79500  Biso   1.000  C
  C182     1.0000 0.00000  0.70500  0.29500  Biso   1.000  C
  C183     1.0000 0.50000  0.20500  0.29500  Biso   1.000  C
  C184     1.0000 0.50000  0.70500  0.79500  Biso   1.000  C
  C185     1.0000 0.00000  0.79500  0.79500  Biso   1.000  C
  C186     1.0000 0.00000  0.29500  0.29500  Biso   1.000  C
  C187     1.0000 0.50000  0.79500  0.29500  Biso   1.000  C
  C188     1.0000 0.50000  0.29500  0.79500  Biso   1.000  C
  C189     1.0000 0.00000  0.79500  0.20500  Biso   1.000  C
  C190     1.0000 0.00000  0.29500  0.70500  Biso   1.000  C
  C191     1.0000 0.50000  0.79500  0.70500  Biso   1.000  C
  C192     1.0000 0.50000  0.29500  0.20500  Biso   1.000  C
  O121     1.0000 0.52484  0.33256  0.57234  Biso   1.000  O
  H97      1.0000 0.52484  0.36943  0.54354  Biso   1.000  H
  H98      1.0000 0.52484  0.29568  0.54354  Biso   1.000  H
