data_image0
_cell_length_a       11.48
_cell_length_b       25.52
_cell_length_c       25.52
_cell_angle_alpha    120
_cell_angle_beta     90
_cell_angle_gamma    90

_symmetry_space_group_name_H-M    "P 1"
_symmetry_int_tables_number       1

loop_
  _symmetry_equiv_pos_as_xyz
  'x, y, z'

loop_
  _atom_site_label
  _atom_site_occupancy
  _atom_site_fract_x
  _atom_site_fract_y
  _atom_site_fract_z
  _atom_site_thermal_displace_type
  _atom_site_B_iso_or_equiv
  _atom_site_type_symbol
  Zr1      1.0000 0.00000  0.55597  0.44403  Biso   1.000  Zr
  Zr2      1.0000 0.00000  0.55597  0.11194  Biso   1.000  Zr
  Zr3      1.0000 0.00000  0.88806  0.44403  Biso   1.000  Zr
  Zr4      1.0000 0.00000  0.44403  0.55597  Biso   1.000  Zr
  Zr5      1.0000 0.00000  0.44403  0.88806  Biso   1.000  Zr
  Zr6      1.0000 0.00000  0.11194  0.55597  Biso   1.000  Zr
  Zr7      1.0000 0.84640  0.43124  0.43124  Biso   1.000  Zr
  Zr8      1.0000 0.84640  0.56876  0.00000  Biso   1.000  Zr
  Zr9      1.0000 0.84640  0.00000  0.56876  Biso   1.000  Zr
  Zr10     1.0000 0.84640  0.56876  0.56876  Biso   1.000  Zr
  Zr11     1.0000 0.84640  0.43124  0.00000  Biso   1.000  Zr
  Zr12     1.0000 0.84640  0.00000  0.43124  Biso   1.000  Zr
  Zr13     1.0000 0.15360  0.43124  0.43124  Biso   1.000  Zr
  Zr14     1.0000 0.15360  0.00000  0.56876  Biso   1.000  Zr
  Zr15     1.0000 0.15360  0.56876  0.00000  Biso   1.000  Zr
  Zr16     1.0000 0.15360  0.56876  0.56876  Biso   1.000  Zr
  Zr17     1.0000 0.15360  0.00000  0.43124  Biso   1.000  Zr
  Zr18     1.0000 0.15360  0.43124  0.00000  Biso   1.000  Zr
  O1       1.0000 0.88580  0.52810  0.36660  Biso   1.000  O
  O2       1.0000 0.88580  0.63340  0.16150  Biso   1.000  O
  O3       1.0000 0.88580  0.83850  0.47190  Biso   1.000  O
  O4       1.0000 0.88580  0.47190  0.63340  Biso   1.000  O
  O5       1.0000 0.88580  0.36660  0.83850  Biso   1.000  O
  O6       1.0000 0.88580  0.16150  0.52810  Biso   1.000  O
  O7       1.0000 0.11420  0.36660  0.52810  Biso   1.000  O
  O8       1.0000 0.11420  0.16150  0.63340  Biso   1.000  O
  O9       1.0000 0.11420  0.47190  0.83850  Biso   1.000  O
  O10      1.0000 0.11420  0.63340  0.47190  Biso   1.000  O
  O11      1.0000 0.11420  0.83850  0.36660  Biso   1.000  O
  O12      1.0000 0.11420  0.52810  0.16150  Biso   1.000  O
  O13      1.0000 0.11420  0.47190  0.63340  Biso   1.000  O
  O14      1.0000 0.11420  0.36660  0.83850  Biso   1.000  O
  O15      1.0000 0.11420  0.16150  0.52810  Biso   1.000  O
  O16      1.0000 0.11420  0.52810  0.36660  Biso   1.000  O
  O17      1.0000 0.11420  0.63340  0.16150  Biso   1.000  O
  O18      1.0000 0.11420  0.83850  0.47190  Biso   1.000  O
  O19      1.0000 0.88580  0.63340  0.47190  Biso   1.000  O
  O20      1.0000 0.88580  0.83850  0.36660  Biso   1.000  O
  O21      1.0000 0.88580  0.52810  0.16150  Biso   1.000  O
  O22      1.0000 0.88580  0.36660  0.52810  Biso   1.000  O
  O23      1.0000 0.88580  0.16150  0.63340  Biso   1.000  O
  O24      1.0000 0.88580  0.47190  0.83850  Biso   1.000  O
  O25      1.0000 0.78550  0.44900  0.35980  Biso   1.000  O
  O26      1.0000 0.78550  0.64020  0.08920  Biso   1.000  O
  O27      1.0000 0.78550  0.91080  0.55100  Biso   1.000  O
  O28      1.0000 0.78550  0.55100  0.64020  Biso   1.000  O
  O29      1.0000 0.78550  0.35980  0.91080  Biso   1.000  O
  O30      1.0000 0.78550  0.08920  0.44900  Biso   1.000  O
  O31      1.0000 0.21450  0.35980  0.44900  Biso   1.000  O
  O32      1.0000 0.21450  0.08920  0.64020  Biso   1.000  O
  O33      1.0000 0.21450  0.55100  0.91080  Biso   1.000  O
  O34      1.0000 0.21450  0.64020  0.55100  Biso   1.000  O
  O35      1.0000 0.21450  0.91080  0.35980  Biso   1.000  O
  O36      1.0000 0.21450  0.44900  0.08920  Biso   1.000  O
  O37      1.0000 0.21450  0.55100  0.64020  Biso   1.000  O
  O38      1.0000 0.21450  0.35980  0.91080  Biso   1.000  O
  O39      1.0000 0.21450  0.08920  0.44900  Biso   1.000  O
  O40      1.0000 0.21450  0.44900  0.35980  Biso   1.000  O
  O41      1.0000 0.21450  0.64020  0.08920  Biso   1.000  O
  O42      1.0000 0.21450  0.91080  0.55100  Biso   1.000  O
  O43      1.0000 0.78550  0.64020  0.55100  Biso   1.000  O
  O44      1.0000 0.78550  0.91080  0.35980  Biso   1.000  O
  O45      1.0000 0.78550  0.44900  0.08920  Biso   1.000  O
  O46      1.0000 0.78550  0.35980  0.44900  Biso   1.000  O
  O47      1.0000 0.78550  0.08920  0.64020  Biso   1.000  O
  O48      1.0000 0.78550  0.55100  0.91080  Biso   1.000  O
  O49      1.0000 0.85550  0.34450  0.34450  Biso   1.000  O
  O50      1.0000 0.85550  0.65550  0.00000  Biso   1.000  O
  O51      1.0000 0.85550  0.00000  0.65550  Biso   1.000  O
  O52      1.0000 0.85550  0.65550  0.65550  Biso   1.000  O
  O53      1.0000 0.85550  0.34450  0.00000  Biso   1.000  O
  O54      1.0000 0.85550  0.00000  0.34450  Biso   1.000  O
  O55      1.0000 0.14450  0.34450  0.34450  Biso   1.000  O
  O56      1.0000 0.14450  0.00000  0.65550  Biso   1.000  O
  O57      1.0000 0.14450  0.65550  0.00000  Biso   1.000  O
  O58      1.0000 0.14450  0.65550  0.65550  Biso   1.000  O
  O59      1.0000 0.14450  0.00000  0.34450  Biso   1.000  O
  O60      1.0000 0.14450  0.34450  0.00000  Biso   1.000  O
  O61      1.0000 0.65450  0.43420  0.43420  Biso   1.000  O
  O62      1.0000 0.65450  0.56580  0.00000  Biso   1.000  O
  O63      1.0000 0.65450  0.00000  0.56580  Biso   1.000  O
  O64      1.0000 0.65450  0.56580  0.56580  Biso   1.000  O
  O65      1.0000 0.65450  0.43420  0.00000  Biso   1.000  O
  O66      1.0000 0.65450  0.00000  0.43420  Biso   1.000  O
  O67      1.0000 0.34550  0.43420  0.43420  Biso   1.000  O
  O68      1.0000 0.34550  0.00000  0.56580  Biso   1.000  O
  O69      1.0000 0.34550  0.56580  0.00000  Biso   1.000  O
  O70      1.0000 0.34550  0.56580  0.56580  Biso   1.000  O
  O71      1.0000 0.34550  0.00000  0.43420  Biso   1.000  O
  O72      1.0000 0.34550  0.43420  0.00000  Biso   1.000  O
  O73      1.0000 0.00000  0.40280  0.46120  Biso   1.000  O
  O74      1.0000 0.00000  0.53880  0.94160  Biso   1.000  O
  O75      1.0000 0.00000  0.05840  0.59720  Biso   1.000  O
  O76      1.0000 0.00000  0.59720  0.53880  Biso   1.000  O
  O77      1.0000 0.00000  0.46120  0.05840  Biso   1.000  O
  O78      1.0000 0.00000  0.94160  0.40280  Biso   1.000  O
  O79      1.0000 0.00000  0.46120  0.40280  Biso   1.000  O
  O80      1.0000 0.00000  0.94160  0.53880  Biso   1.000  O
  O81      1.0000 0.00000  0.59720  0.05840  Biso   1.000  O
  O82      1.0000 0.00000  0.53880  0.59720  Biso   1.000  O
  O83      1.0000 0.00000  0.05840  0.46120  Biso   1.000  O
  O84      1.0000 0.00000  0.40280  0.94160  Biso   1.000  O
  O85      1.0000 0.84690  0.47520  0.52480  Biso   1.000  O
  O86      1.0000 0.84690  0.47520  0.95040  Biso   1.000  O
  O87      1.0000 0.84690  0.04960  0.52480  Biso   1.000  O
  O88      1.0000 0.84690  0.52480  0.47520  Biso   1.000  O
  O89      1.0000 0.84690  0.52480  0.04960  Biso   1.000  O
  O90      1.0000 0.84690  0.95040  0.47520  Biso   1.000  O
  O91      1.0000 0.15310  0.52480  0.47520  Biso   1.000  O
  O92      1.0000 0.15310  0.95040  0.47520  Biso   1.000  O
  O93      1.0000 0.15310  0.52480  0.04960  Biso   1.000  O
  O94      1.0000 0.15310  0.47520  0.52480  Biso   1.000  O
  O95      1.0000 0.15310  0.04960  0.52480  Biso   1.000  O
  O96      1.0000 0.15310  0.47520  0.95040  Biso   1.000  O
  C1       1.0000 0.81620  0.48250  0.34190  Biso   1.000  C
  C2       1.0000 0.81620  0.65810  0.14060  Biso   1.000  C
  C3       1.0000 0.81620  0.85940  0.51750  Biso   1.000  C
  C4       1.0000 0.81620  0.51750  0.65810  Biso   1.000  C
  C5       1.0000 0.81620  0.34190  0.85940  Biso   1.000  C
  C6       1.0000 0.81620  0.14060  0.48250  Biso   1.000  C
  C7       1.0000 0.18380  0.34190  0.48250  Biso   1.000  C
  C8       1.0000 0.18380  0.14060  0.65810  Biso   1.000  C
  C9       1.0000 0.18380  0.51750  0.85940  Biso   1.000  C
  C10      1.0000 0.18380  0.65810  0.51750  Biso   1.000  C
  C11      1.0000 0.18380  0.85940  0.34190  Biso   1.000  C
  C12      1.0000 0.18380  0.48250  0.14060  Biso   1.000  C
  C13      1.0000 0.18380  0.51750  0.65810  Biso   1.000  C
  C14      1.0000 0.18380  0.34190  0.85940  Biso   1.000  C
  C15      1.0000 0.18380  0.14060  0.48250  Biso   1.000  C
  C16      1.0000 0.18380  0.48250  0.34190  Biso   1.000  C
  C17      1.0000 0.18380  0.65810  0.14060  Biso   1.000  C
  C18      1.0000 0.18380  0.85940  0.51750  Biso   1.000  C
  C19      1.0000 0.81620  0.65810  0.51750  Biso   1.000  C
  C20      1.0000 0.81620  0.85940  0.34190  Biso   1.000  C
  C21      1.0000 0.81620  0.48250  0.14060  Biso   1.000  C
  C22      1.0000 0.81620  0.34190  0.48250  Biso   1.000  C
  C23      1.0000 0.81620  0.14060  0.65810  Biso   1.000  C
  C24      1.0000 0.81620  0.51750  0.85940  Biso   1.000  C
  C25      1.0000 0.75760  0.46930  0.28220  Biso   1.000  C
  C26      1.0000 0.75760  0.71780  0.18710  Biso   1.000  C
  C27      1.0000 0.75760  0.81290  0.53070  Biso   1.000  C
  C28      1.0000 0.75760  0.53070  0.71780  Biso   1.000  C
  C29      1.0000 0.75760  0.28220  0.81290  Biso   1.000  C
  C30      1.0000 0.75760  0.18710  0.46930  Biso   1.000  C
  C31      1.0000 0.24240  0.28220  0.46930  Biso   1.000  C
  C32      1.0000 0.24240  0.18710  0.71780  Biso   1.000  C
  C33      1.0000 0.24240  0.53070  0.81290  Biso   1.000  C
  C34      1.0000 0.24240  0.71780  0.53070  Biso   1.000  C
  C35      1.0000 0.24240  0.81290  0.28220  Biso   1.000  C
  C36      1.0000 0.24240  0.46930  0.18710  Biso   1.000  C
  C37      1.0000 0.24240  0.53070  0.71780  Biso   1.000  C
  C38      1.0000 0.24240  0.28220  0.81290  Biso   1.000  C
  C39      1.0000 0.24240  0.18710  0.46930  Biso   1.000  C
  C40      1.0000 0.24240  0.46930  0.28220  Biso   1.000  C
  C41      1.0000 0.24240  0.71780  0.18710  Biso   1.000  C
  C42      1.0000 0.24240  0.81290  0.53070  Biso   1.000  C
  C43      1.0000 0.75760  0.71780  0.53070  Biso   1.000  C
  C44      1.0000 0.75760  0.81290  0.28220  Biso   1.000  C
  C45      1.0000 0.75760  0.46930  0.18710  Biso   1.000  C
  C46      1.0000 0.75760  0.28220  0.46930  Biso   1.000  C
  C47      1.0000 0.75760  0.18710  0.71780  Biso   1.000  C
  C48      1.0000 0.75760  0.53070  0.81290  Biso   1.000  C
  C49      1.0000 0.80300  0.49000  0.24500  Biso   1.000  C
  C50      1.0000 0.80300  0.75500  0.24500  Biso   1.000  C
  C51      1.0000 0.80300  0.75500  0.51000  Biso   1.000  C
  C52      1.0000 0.80300  0.51000  0.75500  Biso   1.000  C
  C53      1.0000 0.80300  0.24500  0.75500  Biso   1.000  C
  C54      1.0000 0.80300  0.24500  0.49000  Biso   1.000  C
  C55      1.0000 0.19700  0.24500  0.49000  Biso   1.000  C
  C56      1.0000 0.19700  0.24500  0.75500  Biso   1.000  C
  C57      1.0000 0.19700  0.51000  0.75500  Biso   1.000  C
  C58      1.0000 0.19700  0.75500  0.51000  Biso   1.000  C
  C59      1.0000 0.19700  0.75500  0.24500  Biso   1.000  C
  C60      1.0000 0.19700  0.49000  0.24500  Biso   1.000  C
  H1       1.0000 0.86560  0.51821  0.25910  Biso   1.000  H
  H2       1.0000 0.86560  0.74090  0.25911  Biso   1.000  H
  H3       1.0000 0.86560  0.74089  0.48179  Biso   1.000  H
  H4       1.0000 0.86560  0.48179  0.74090  Biso   1.000  H
  H5       1.0000 0.86560  0.25910  0.74089  Biso   1.000  H
  H6       1.0000 0.86560  0.25911  0.51821  Biso   1.000  H
  H7       1.0000 0.13440  0.25910  0.51821  Biso   1.000  H
  H8       1.0000 0.13440  0.25910  0.74090  Biso   1.000  H
  H9       1.0000 0.13440  0.48179  0.74089  Biso   1.000  H
  H10      1.0000 0.13440  0.74090  0.48179  Biso   1.000  H
  H11      1.0000 0.13440  0.74089  0.25910  Biso   1.000  H
  H12      1.0000 0.13440  0.51821  0.25911  Biso   1.000  H
  C61      1.0000 0.66090  0.43360  0.26190  Biso   1.000  C
  C62      1.0000 0.66090  0.73810  0.17170  Biso   1.000  C
  C63      1.0000 0.66090  0.82830  0.56640  Biso   1.000  C
  C64      1.0000 0.66090  0.56640  0.73810  Biso   1.000  C
  C65      1.0000 0.66090  0.26190  0.82830  Biso   1.000  C
  C66      1.0000 0.66090  0.17170  0.43360  Biso   1.000  C
  C67      1.0000 0.33910  0.26190  0.43360  Biso   1.000  C
  C68      1.0000 0.33910  0.17170  0.73810  Biso   1.000  C
  C69      1.0000 0.33910  0.56640  0.82830  Biso   1.000  C
  C70      1.0000 0.33910  0.73810  0.56640  Biso   1.000  C
  C71      1.0000 0.33910  0.82830  0.26190  Biso   1.000  C
  C72      1.0000 0.33910  0.43360  0.17170  Biso   1.000  C
  C73      1.0000 0.33910  0.56640  0.73810  Biso   1.000  C
  C74      1.0000 0.33910  0.26190  0.82830  Biso   1.000  C
  C75      1.0000 0.33910  0.17170  0.43360  Biso   1.000  C
  C76      1.0000 0.33910  0.43360  0.26190  Biso   1.000  C
  C77      1.0000 0.33910  0.73810  0.17170  Biso   1.000  C
  C78      1.0000 0.33910  0.82830  0.56640  Biso   1.000  C
  C79      1.0000 0.66090  0.73810  0.56640  Biso   1.000  C
  C80      1.0000 0.66090  0.82830  0.26190  Biso   1.000  C
  C81      1.0000 0.66090  0.43360  0.17170  Biso   1.000  C
  C82      1.0000 0.66090  0.26190  0.43360  Biso   1.000  C
  C83      1.0000 0.66090  0.17170  0.73810  Biso   1.000  C
  C84      1.0000 0.66090  0.56640  0.82830  Biso   1.000  C
  H13      1.0000 0.62566  0.42230  0.28850  Biso   1.000  H
  H14      1.0000 0.62566  0.71150  0.13380  Biso   1.000  H
  H15      1.0000 0.62566  0.86620  0.57770  Biso   1.000  H
  H16      1.0000 0.62566  0.57770  0.71149  Biso   1.000  H
  H17      1.0000 0.62566  0.28851  0.86620  Biso   1.000  H
  H18      1.0000 0.62566  0.13380  0.42230  Biso   1.000  H
  H19      1.0000 0.37434  0.28851  0.42230  Biso   1.000  H
  H20      1.0000 0.37434  0.13380  0.71149  Biso   1.000  H
  H21      1.0000 0.37434  0.57770  0.86620  Biso   1.000  H
  H22      1.0000 0.37434  0.71150  0.57770  Biso   1.000  H
  H23      1.0000 0.37434  0.86620  0.28850  Biso   1.000  H
  H24      1.0000 0.37434  0.42230  0.13380  Biso   1.000  H
  H25      1.0000 0.37434  0.57770  0.71149  Biso   1.000  H
  H26      1.0000 0.37434  0.28851  0.86620  Biso   1.000  H
  H27      1.0000 0.37434  0.13380  0.42230  Biso   1.000  H
  H28      1.0000 0.37434  0.42230  0.28850  Biso   1.000  H
  H29      1.0000 0.37434  0.71150  0.13380  Biso   1.000  H
  H30      1.0000 0.37434  0.86620  0.57770  Biso   1.000  H
  H31      1.0000 0.62566  0.71150  0.57770  Biso   1.000  H
  H32      1.0000 0.62566  0.86620  0.28850  Biso   1.000  H
  H33      1.0000 0.62566  0.42230  0.13380  Biso   1.000  H
  H34      1.0000 0.62566  0.28851  0.42230  Biso   1.000  H
  H35      1.0000 0.62566  0.13380  0.71149  Biso   1.000  H
  H36      1.0000 0.62566  0.57770  0.86620  Biso   1.000  H
  C85      1.0000 0.61000  0.41250  0.20630  Biso   1.000  C
  C86      1.0000 0.61000  0.79370  0.20620  Biso   1.000  C
  C87      1.0000 0.61000  0.79380  0.58750  Biso   1.000  C
  C88      1.0000 0.61000  0.58750  0.79370  Biso   1.000  C
  C89      1.0000 0.61000  0.20630  0.79380  Biso   1.000  C
  C90      1.0000 0.61000  0.20620  0.41250  Biso   1.000  C
  C91      1.0000 0.39000  0.20630  0.41250  Biso   1.000  C
  C92      1.0000 0.39000  0.20620  0.79370  Biso   1.000  C
  C93      1.0000 0.39000  0.58750  0.79380  Biso   1.000  C
  C94      1.0000 0.39000  0.79370  0.58750  Biso   1.000  C
  C95      1.0000 0.39000  0.79380  0.20630  Biso   1.000  C
  C96      1.0000 0.39000  0.41250  0.20620  Biso   1.000  C
  C97      1.0000 0.50000  0.37500  0.18750  Biso   1.000  C
  C98      1.0000 0.50000  0.81250  0.18750  Biso   1.000  C
  C99      1.0000 0.50000  0.81250  0.62500  Biso   1.000  C
  C100     1.0000 0.50000  0.62500  0.81250  Biso   1.000  C
  C101     1.0000 0.50000  0.18750  0.81250  Biso   1.000  C
  C102     1.0000 0.50000  0.18750  0.37500  Biso   1.000  C
  H37      1.0000 0.50000  0.34862  0.20563  Biso   1.000  H
  H38      1.0000 0.50000  0.79437  0.14299  Biso   1.000  H
  H39      1.0000 0.50000  0.85701  0.65138  Biso   1.000  H
  H40      1.0000 0.50000  0.65138  0.79437  Biso   1.000  H
  H41      1.0000 0.50000  0.20563  0.85701  Biso   1.000  H
  H42      1.0000 0.50000  0.14299  0.34862  Biso   1.000  H
  H43      1.0000 0.50000  0.20563  0.34862  Biso   1.000  H
  H44      1.0000 0.50000  0.14299  0.79437  Biso   1.000  H
  H45      1.0000 0.50000  0.65138  0.85701  Biso   1.000  H
  H46      1.0000 0.50000  0.79437  0.65138  Biso   1.000  H
  H47      1.0000 0.50000  0.85701  0.20563  Biso   1.000  H
  H48      1.0000 0.50000  0.34862  0.14299  Biso   1.000  H
